<?xml version="1.0" encoding="UTF-8"?>

<!-- generated on 2026-05-24T18:54:29.055583-05:00 by Eclipse SUMO netconvert 1.26.0
<netconvertConfiguration xmlns:xsi="http://www.w3.org/2001/XMLSchema-instance" xsi:noNamespaceSchemaLocation="http://sumo.dlr.de/xsd/netconvertConfiguration.xsd">

    <input>
        <sumo-net-file value="C:\Proyecto_Tesis_Final_V1\traffic_project\tsc_framework\sumo_configs\hangzhou\hangzhou.net.xml"/>
    </input>

    <output>
        <output-file value="C:\Proyecto_Tesis_Final_V1\traffic_project\tsc_framework\sumo_configs\hangzhou\hangzhou_pedestrian.net.xml"/>
    </output>

    <processing>
        <geometry.min-radius.fix.railways value="false"/>
        <geometry.avoid-overlap value="false"/>
        <geometry.max-grade.fix value="false"/>
        <offset.disable-normalization value="true"/>
        <lefthand value="0"/>
    </processing>

    <tls_building>
        <tls.guess-signals value="true"/>
    </tls_building>

    <junctions>
        <no-turnarounds value="true"/>
        <junctions.corner-detail value="5"/>
        <junctions.limit-turn-speed value="5.50"/>
        <rectangular-lane-cut value="0"/>
    </junctions>

    <pedestrian>
        <sidewalks.guess value="true"/>
        <sidewalks.guess.from-permissions value="true"/>
        <crossings.guess value="true"/>
        <walkingareas value="0"/>
    </pedestrian>

</netconvertConfiguration>
-->

<net version="1.20" junctionCornerDetail="5" walkingareas="true" limitTurnSpeed="5.50" avoidOverlap="0" xmlns:xsi="http://www.w3.org/2001/XMLSchema-instance" xsi:noNamespaceSchemaLocation="http://sumo.dlr.de/xsd/net_file.xsd">

    <location netOffset="0.00,0.00" convBoundary="0.00,0.00,1500.00,1500.00" origBoundary="0.00,0.00,1500.00,1500.00" projParameter="!"/>

    <edge id=":A0_0" function="internal">
        <lane id=":A0_0_0" index="0" disallow="pedestrian" speed="7.10" length="10.97" shape="-1.60,5.20 -1.18,2.23 0.10,0.10 2.22,-1.17 5.20,-1.60"/>
    </edge>
    <edge id=":A0_1" function="internal">
        <lane id=":A0_1_0" index="0" disallow="pedestrian" speed="5.37" length="5.81" shape="5.20,1.60 3.62,1.82 2.50,2.50 1.83,3.62 1.60,5.20"/>
    </edge>
    <edge id=":A0_c0" function="crossing" crossingEdges="A0A1 A1A0">
        <lane id=":A0_c0_0" index="0" allow="pedestrian" speed="2.78" length="6.40" width="4.00" shape="3.20,3.20 -3.20,3.20" outlineShape="3.20,5.20 -3.20,5.20 -4.64,1.20 -4.91,2.02 -5.20,5.20 -3.20,5.20 -3.20,1.20 3.20,1.20 5.20,3.20 4.59,3.26 4.09,3.42 3.70,3.70 3.42,4.09 3.26,4.59"/>
    </edge>
    <edge id=":A0_w0" function="walkingarea">
        <lane id=":A0_w0_0" index="0" allow="pedestrian" speed="2.78" length="8.91" width="4.00" shape="5.20,-3.20 5.20,-5.20 2.02,-4.91 -0.58,-4.04 -2.60,-2.60 -4.04,-0.58 -4.91,2.02 -5.20,5.20 -3.20,5.20 -2.97,2.63 -2.27,0.53 -1.10,-1.10 0.53,-2.27 2.63,-2.97"/>
    </edge>
    <edge id=":A0_w1" function="walkingarea">
        <lane id=":A0_w1_0" index="0" allow="pedestrian" speed="2.78" length="1.96" width="4.00" shape="3.20,5.20 5.20,5.20 5.20,3.20 4.59,3.26 4.09,3.42 3.70,3.70 3.42,4.09 3.26,4.59"/>
    </edge>
    <edge id=":A1_0" function="internal">
        <lane id=":A1_0_0" index="0" disallow="pedestrian" speed="13.89" length="14.40" shape="-1.60,507.20 -1.60,492.80"/>
    </edge>
    <edge id=":A1_1" function="internal">
        <lane id=":A1_1_0" index="0" disallow="pedestrian" speed="8.00" length="4.07" shape="-1.60,507.20 -1.05,503.35 -0.96,503.20"/>
    </edge>
    <edge id=":A1_2" function="internal">
        <lane id=":A1_2_0" index="0" disallow="pedestrian" speed="3.65" length="1.44" shape="-1.60,507.20 -0.80,506.00"/>
    </edge>
    <edge id=":A1_9" function="internal">
        <lane id=":A1_9_0" index="0" disallow="pedestrian" speed="8.00" length="10.13" shape="-0.96,503.20 0.60,500.60 3.35,498.95 7.20,498.40"/>
    </edge>
    <edge id=":A1_10" function="internal">
        <lane id=":A1_10_0" index="0" disallow="pedestrian" speed="3.65" length="3.23" shape="-0.80,506.00 0.00,505.60 0.80,506.00 1.60,507.20"/>
    </edge>
    <edge id=":A1_3" function="internal">
        <lane id=":A1_3_0" index="0" disallow="pedestrian" speed="6.51" length="4.75" shape="7.20,501.60 4.75,501.95 3.00,503.00 2.88,503.20"/>
    </edge>
    <edge id=":A1_4" function="internal">
        <lane id=":A1_4_0" index="0" disallow="pedestrian" speed="8.00" length="10.13" shape="7.20,501.60 3.35,501.05 0.60,499.40 -0.96,496.80"/>
    </edge>
    <edge id=":A1_5" function="internal">
        <lane id=":A1_5_0" index="0" disallow="pedestrian" speed="3.65" length="1.44" shape="7.20,501.60 6.00,500.80"/>
    </edge>
    <edge id=":A1_11" function="internal">
        <lane id=":A1_11_0" index="0" disallow="pedestrian" speed="6.51" length="4.28" shape="2.88,503.20 1.95,504.75 1.60,507.20"/>
    </edge>
    <edge id=":A1_12" function="internal">
        <lane id=":A1_12_0" index="0" disallow="pedestrian" speed="8.00" length="4.06" shape="-0.96,496.80 -1.05,496.65 -1.60,492.80"/>
    </edge>
    <edge id=":A1_13" function="internal">
        <lane id=":A1_13_0" index="0" disallow="pedestrian" speed="3.65" length="3.23" shape="6.00,500.80 5.60,500.00 6.00,499.20 7.20,498.40"/>
    </edge>
    <edge id=":A1_6" function="internal">
        <lane id=":A1_6_0" index="0" disallow="pedestrian" speed="6.51" length="4.75" shape="1.60,492.80 1.95,495.25 3.00,497.00 3.20,497.12"/>
    </edge>
    <edge id=":A1_7" function="internal">
        <lane id=":A1_7_0" index="0" disallow="pedestrian" speed="13.89" length="14.40" shape="1.60,492.80 1.60,507.20"/>
    </edge>
    <edge id=":A1_8" function="internal">
        <lane id=":A1_8_0" index="0" disallow="pedestrian" speed="3.65" length="1.44" shape="1.60,492.80 0.80,494.00"/>
    </edge>
    <edge id=":A1_14" function="internal">
        <lane id=":A1_14_0" index="0" disallow="pedestrian" speed="6.51" length="4.28" shape="3.20,497.12 4.75,498.05 7.20,498.40"/>
    </edge>
    <edge id=":A1_15" function="internal">
        <lane id=":A1_15_0" index="0" disallow="pedestrian" speed="3.65" length="3.23" shape="0.80,494.00 0.00,494.40 -0.80,494.00 -1.60,492.80"/>
    </edge>
    <edge id=":A1_c0" function="crossing" crossingEdges="A1A2 A2A1">
        <lane id=":A1_c0_0" index="0" allow="pedestrian" speed="2.78" length="6.40" width="4.00" shape="3.20,505.20 -3.20,505.20" outlineShape="3.20,507.20 -3.20,507.20 -5.20,503.20 -5.20,507.20 -3.20,507.20 -3.20,503.20 3.20,503.20 5.31,503.53 4.98,503.64 4.20,504.20 3.64,504.98 3.31,505.98"/>
    </edge>
    <edge id=":A1_c1" function="crossing" crossingEdges="A1B1 B1A1">
        <lane id=":A1_c1_0" index="0" allow="pedestrian" speed="2.78" length="6.40" width="4.00" shape="5.20,496.80 5.20,503.20" outlineShape="7.20,496.80 7.20,503.20 3.20,507.20 5.20,507.20 7.20,505.20 7.20,503.20 3.20,507.20 3.20,492.80 3.31,494.02 3.64,495.02 4.20,495.80 4.98,496.36 5.98,496.69"/>
    </edge>
    <edge id=":A1_c2" function="crossing" crossingEdges="A1A0 A0A1">
        <lane id=":A1_c2_0" index="0" allow="pedestrian" speed="2.78" length="6.40" width="4.00" shape="-3.20,494.80 3.20,494.80" outlineShape="-3.20,492.80 3.20,492.80 3.31,494.02 3.64,495.02 4.20,495.80 4.98,496.36 5.31,496.47 3.20,496.80 -3.20,496.80"/>
    </edge>
    <edge id=":A1_w0" function="walkingarea">
        <lane id=":A1_w0_0" index="0" allow="pedestrian" speed="2.78" length="9.03" width="4.00" shape="-3.20,496.80 -3.20,492.80 -5.20,492.80 -5.20,507.20 -3.20,507.20 -3.20,503.20"/>
    </edge>
    <edge id=":A1_w1" function="walkingarea">
        <lane id=":A1_w1_0" index="0" allow="pedestrian" speed="2.78" length="3.30" width="4.00" shape="3.20,507.20 5.20,507.20 7.20,505.20 7.20,503.20 5.98,503.31 4.98,503.64 4.20,504.20 3.64,504.98 3.31,505.98"/>
    </edge>
    <edge id=":A1_w2" function="walkingarea">
        <lane id=":A1_w2_0" index="0" allow="pedestrian" speed="2.78" length="3.30" width="4.00" shape="7.20,496.80 7.20,494.80 5.20,492.80 3.20,492.80 3.31,494.02 3.64,495.02 4.20,495.80 4.98,496.36 5.98,496.69"/>
    </edge>
    <edge id=":A2_0" function="internal">
        <lane id=":A2_0_0" index="0" disallow="pedestrian" speed="13.89" length="14.40" shape="-1.60,1007.20 -1.60,992.80"/>
    </edge>
    <edge id=":A2_1" function="internal">
        <lane id=":A2_1_0" index="0" disallow="pedestrian" speed="8.00" length="4.07" shape="-1.60,1007.20 -1.05,1003.35 -0.96,1003.20"/>
    </edge>
    <edge id=":A2_2" function="internal">
        <lane id=":A2_2_0" index="0" disallow="pedestrian" speed="3.65" length="1.44" shape="-1.60,1007.20 -0.80,1006.00"/>
    </edge>
    <edge id=":A2_9" function="internal">
        <lane id=":A2_9_0" index="0" disallow="pedestrian" speed="8.00" length="10.13" shape="-0.96,1003.20 0.60,1000.60 3.35,998.95 7.20,998.40"/>
    </edge>
    <edge id=":A2_10" function="internal">
        <lane id=":A2_10_0" index="0" disallow="pedestrian" speed="3.65" length="3.23" shape="-0.80,1006.00 0.00,1005.60 0.80,1006.00 1.60,1007.20"/>
    </edge>
    <edge id=":A2_3" function="internal">
        <lane id=":A2_3_0" index="0" disallow="pedestrian" speed="6.51" length="4.75" shape="7.20,1001.60 4.75,1001.95 3.00,1003.00 2.88,1003.20"/>
    </edge>
    <edge id=":A2_4" function="internal">
        <lane id=":A2_4_0" index="0" disallow="pedestrian" speed="8.00" length="10.13" shape="7.20,1001.60 3.35,1001.05 0.60,999.40 -0.96,996.80"/>
    </edge>
    <edge id=":A2_5" function="internal">
        <lane id=":A2_5_0" index="0" disallow="pedestrian" speed="3.65" length="1.44" shape="7.20,1001.60 6.00,1000.80"/>
    </edge>
    <edge id=":A2_11" function="internal">
        <lane id=":A2_11_0" index="0" disallow="pedestrian" speed="6.51" length="4.28" shape="2.88,1003.20 1.95,1004.75 1.60,1007.20"/>
    </edge>
    <edge id=":A2_12" function="internal">
        <lane id=":A2_12_0" index="0" disallow="pedestrian" speed="8.00" length="4.06" shape="-0.96,996.80 -1.05,996.65 -1.60,992.80"/>
    </edge>
    <edge id=":A2_13" function="internal">
        <lane id=":A2_13_0" index="0" disallow="pedestrian" speed="3.65" length="3.23" shape="6.00,1000.80 5.60,1000.00 6.00,999.20 7.20,998.40"/>
    </edge>
    <edge id=":A2_6" function="internal">
        <lane id=":A2_6_0" index="0" disallow="pedestrian" speed="6.51" length="4.75" shape="1.60,992.80 1.95,995.25 3.00,997.00 3.20,997.12"/>
    </edge>
    <edge id=":A2_7" function="internal">
        <lane id=":A2_7_0" index="0" disallow="pedestrian" speed="13.89" length="14.40" shape="1.60,992.80 1.60,1007.20"/>
    </edge>
    <edge id=":A2_8" function="internal">
        <lane id=":A2_8_0" index="0" disallow="pedestrian" speed="3.65" length="1.44" shape="1.60,992.80 0.80,994.00"/>
    </edge>
    <edge id=":A2_14" function="internal">
        <lane id=":A2_14_0" index="0" disallow="pedestrian" speed="6.51" length="4.28" shape="3.20,997.12 4.75,998.05 7.20,998.40"/>
    </edge>
    <edge id=":A2_15" function="internal">
        <lane id=":A2_15_0" index="0" disallow="pedestrian" speed="3.65" length="3.23" shape="0.80,994.00 0.00,994.40 -0.80,994.00 -1.60,992.80"/>
    </edge>
    <edge id=":A2_c0" function="crossing" crossingEdges="A2A3 A3A2">
        <lane id=":A2_c0_0" index="0" allow="pedestrian" speed="2.78" length="6.40" width="4.00" shape="3.20,1005.20 -3.20,1005.20" outlineShape="3.20,1007.20 -3.20,1007.20 -5.20,1003.20 -5.20,1007.20 -3.20,1007.20 -3.20,1003.20 3.20,1003.20 5.31,1003.53 4.98,1003.64 4.20,1004.20 3.64,1004.98 3.31,1005.98"/>
    </edge>
    <edge id=":A2_c1" function="crossing" crossingEdges="A2B2 B2A2">
        <lane id=":A2_c1_0" index="0" allow="pedestrian" speed="2.78" length="6.40" width="4.00" shape="5.20,996.80 5.20,1003.20" outlineShape="7.20,996.80 7.20,1003.30 3.20,1007.20 5.20,1007.20 7.20,1005.20 7.20,1003.40 3.20,1007.20 3.20,992.80 3.31,994.02 3.64,995.02 4.20,995.80 4.98,996.36 5.98,996.69"/>
    </edge>
    <edge id=":A2_c2" function="crossing" crossingEdges="A2A1 A1A2">
        <lane id=":A2_c2_0" index="0" allow="pedestrian" speed="2.78" length="6.40" width="4.00" shape="-3.20,994.80 3.20,994.80" outlineShape="-3.20,992.80 3.20,992.80 3.31,994.02 3.64,995.02 4.20,995.80 4.98,996.36 5.31,996.47 3.20,996.80 -3.20,996.80"/>
    </edge>
    <edge id=":A2_w0" function="walkingarea">
        <lane id=":A2_w0_0" index="0" allow="pedestrian" speed="2.78" length="9.03" width="4.00" shape="-3.20,996.80 -3.20,992.80 -5.20,992.80 -5.20,1007.20 -3.20,1007.20 -3.20,1003.20"/>
    </edge>
    <edge id=":A2_w1" function="walkingarea">
        <lane id=":A2_w1_0" index="0" allow="pedestrian" speed="2.78" length="3.30" width="4.00" shape="3.20,1007.20 5.20,1007.20 7.20,1005.20 7.20,1003.20 5.98,1003.31 4.98,1003.64 4.20,1004.20 3.64,1004.98 3.31,1005.98"/>
    </edge>
    <edge id=":A2_w2" function="walkingarea">
        <lane id=":A2_w2_0" index="0" allow="pedestrian" speed="2.78" length="3.30" width="4.00" shape="7.20,996.80 7.20,994.80 5.20,992.80 3.20,992.80 3.31,994.02 3.64,995.02 4.20,995.80 4.98,996.36 5.98,996.69"/>
    </edge>
    <edge id=":A3_0" function="internal">
        <lane id=":A3_0_0" index="0" disallow="pedestrian" speed="7.10" length="10.97" shape="5.20,1501.60 2.22,1501.17 0.10,1499.90 -1.18,1497.77 -1.60,1494.80"/>
    </edge>
    <edge id=":A3_1" function="internal">
        <lane id=":A3_1_0" index="0" disallow="pedestrian" speed="5.37" length="5.81" shape="1.60,1494.80 1.82,1496.38 2.50,1497.50 3.62,1498.18 5.20,1498.40"/>
    </edge>
    <edge id=":A3_c0" function="crossing" crossingEdges="A3B3 B3A3">
        <lane id=":A3_c0_0" index="0" allow="pedestrian" speed="2.78" length="6.40" width="4.00" shape="3.20,1496.80 3.20,1503.20" outlineShape="5.20,1496.70 5.20,1503.30 1.20,1504.64 2.02,1504.91 5.20,1505.20 5.20,1503.40 1.20,1503.20 1.20,1496.80 3.20,1494.80 3.26,1495.41 3.42,1495.91 3.70,1496.30 4.09,1496.58 4.59,1496.74"/>
    </edge>
    <edge id=":A3_w0" function="walkingarea">
        <lane id=":A3_w0_0" index="0" allow="pedestrian" speed="2.78" length="8.91" width="4.00" shape="-3.20,1494.80 -5.20,1494.80 -4.91,1497.98 -4.04,1500.58 -2.60,1502.60 -0.58,1504.04 2.02,1504.91 5.20,1505.20 5.20,1503.20 2.63,1502.97 0.53,1502.27 -1.10,1501.10 -2.27,1499.47 -2.97,1497.37"/>
    </edge>
    <edge id=":A3_w1" function="walkingarea">
        <lane id=":A3_w1_0" index="0" allow="pedestrian" speed="2.78" length="1.96" width="4.00" shape="5.20,1496.80 5.20,1494.80 3.20,1494.80 3.26,1495.41 3.42,1495.91 3.70,1496.30 4.09,1496.58 4.59,1496.74"/>
    </edge>
    <edge id=":B0_0" function="internal">
        <lane id=":B0_0_0" index="0" disallow="pedestrian" speed="6.51" length="4.75" shape="498.40,7.20 498.05,4.75 497.00,3.00 496.80,2.88"/>
    </edge>
    <edge id=":B0_1" function="internal">
        <lane id=":B0_1_0" index="0" disallow="pedestrian" speed="8.00" length="10.13" shape="498.40,7.20 498.95,3.35 500.60,0.60 503.20,-0.96"/>
    </edge>
    <edge id=":B0_2" function="internal">
        <lane id=":B0_2_0" index="0" disallow="pedestrian" speed="3.65" length="1.44" shape="498.40,7.20 499.20,6.00"/>
    </edge>
    <edge id=":B0_9" function="internal">
        <lane id=":B0_9_0" index="0" disallow="pedestrian" speed="6.51" length="4.28" shape="496.80,2.88 495.25,1.95 492.80,1.60"/>
    </edge>
    <edge id=":B0_10" function="internal">
        <lane id=":B0_10_0" index="0" disallow="pedestrian" speed="8.00" length="4.06" shape="503.20,-0.96 503.35,-1.05 507.20,-1.60"/>
    </edge>
    <edge id=":B0_11" function="internal">
        <lane id=":B0_11_0" index="0" disallow="pedestrian" speed="3.65" length="3.23" shape="499.20,6.00 500.00,5.60 500.80,6.00 501.60,7.20"/>
    </edge>
    <edge id=":B0_3" function="internal">
        <lane id=":B0_3_0" index="0" disallow="pedestrian" speed="6.51" length="4.75" shape="507.20,1.60 504.75,1.95 503.00,3.00 502.88,3.20"/>
    </edge>
    <edge id=":B0_4" function="internal">
        <lane id=":B0_4_0" index="0" disallow="pedestrian" speed="13.89" length="14.40" shape="507.20,1.60 492.80,1.60"/>
    </edge>
    <edge id=":B0_5" function="internal">
        <lane id=":B0_5_0" index="0" disallow="pedestrian" speed="3.65" length="1.44" shape="507.20,1.60 506.00,0.80"/>
    </edge>
    <edge id=":B0_12" function="internal">
        <lane id=":B0_12_0" index="0" disallow="pedestrian" speed="6.51" length="4.28" shape="502.88,3.20 501.95,4.75 501.60,7.20"/>
    </edge>
    <edge id=":B0_13" function="internal">
        <lane id=":B0_13_0" index="0" disallow="pedestrian" speed="3.65" length="3.23" shape="506.00,0.80 505.60,0.00 506.00,-0.80 507.20,-1.60"/>
    </edge>
    <edge id=":B0_6" function="internal">
        <lane id=":B0_6_0" index="0" disallow="pedestrian" speed="13.89" length="14.40" shape="492.80,-1.60 507.20,-1.60"/>
    </edge>
    <edge id=":B0_7" function="internal">
        <lane id=":B0_7_0" index="0" disallow="pedestrian" speed="8.00" length="4.07" shape="492.80,-1.60 496.65,-1.05 496.80,-0.96"/>
    </edge>
    <edge id=":B0_8" function="internal">
        <lane id=":B0_8_0" index="0" disallow="pedestrian" speed="3.65" length="1.44" shape="492.80,-1.60 494.00,-0.80"/>
    </edge>
    <edge id=":B0_14" function="internal">
        <lane id=":B0_14_0" index="0" disallow="pedestrian" speed="8.00" length="10.13" shape="496.80,-0.96 499.40,0.60 501.05,3.35 501.60,7.20"/>
    </edge>
    <edge id=":B0_15" function="internal">
        <lane id=":B0_15_0" index="0" disallow="pedestrian" speed="3.65" length="3.23" shape="494.00,-0.80 494.40,0.00 494.00,0.80 492.80,1.60"/>
    </edge>
    <edge id=":B0_c0" function="crossing" crossingEdges="B0B1 B1B0">
        <lane id=":B0_c0_0" index="0" allow="pedestrian" speed="2.78" length="6.40" width="4.00" shape="503.20,5.20 496.80,5.20" outlineShape="503.20,7.20 496.80,7.20 492.80,3.20 492.80,5.20 494.80,7.20 496.80,7.20 492.80,3.20 507.20,3.20 505.98,3.31 504.98,3.64 504.20,4.20 503.64,4.98 503.31,5.98"/>
    </edge>
    <edge id=":B0_c1" function="crossing" crossingEdges="B0C0 C0B0">
        <lane id=":B0_c1_0" index="0" allow="pedestrian" speed="2.78" length="6.40" width="4.00" shape="505.20,-3.20 505.20,3.20" outlineShape="507.20,-3.20 507.20,3.20 505.98,3.31 504.98,3.64 504.20,4.20 503.64,4.98 503.53,5.31 503.20,3.20 503.20,-3.20"/>
    </edge>
    <edge id=":B0_c2" function="crossing" crossingEdges="B0A0 A0B0">
        <lane id=":B0_c2_0" index="0" allow="pedestrian" speed="2.78" length="6.40" width="4.00" shape="494.80,3.20 494.80,-3.20" outlineShape="492.80,3.20 492.80,-3.20 496.80,-5.20 492.80,-5.20 492.80,-3.20 496.80,-3.20 496.80,3.20 496.47,5.31 496.36,4.98 495.80,4.20 495.02,3.64 494.02,3.31"/>
    </edge>
    <edge id=":B0_w0" function="walkingarea">
        <lane id=":B0_w0_0" index="0" allow="pedestrian" speed="2.78" length="3.30" width="4.00" shape="492.80,3.20 492.80,5.20 494.80,7.20 496.80,7.20 496.69,5.98 496.36,4.98 495.80,4.20 495.02,3.64 494.02,3.31"/>
    </edge>
    <edge id=":B0_w1" function="walkingarea">
        <lane id=":B0_w1_0" index="0" allow="pedestrian" speed="2.78" length="3.30" width="4.00" shape="503.20,7.20 505.20,7.20 507.20,5.20 507.20,3.20 505.98,3.31 504.98,3.64 504.20,4.20 503.64,4.98 503.31,5.98"/>
    </edge>
    <edge id=":B0_w2" function="walkingarea">
        <lane id=":B0_w2_0" index="0" allow="pedestrian" speed="2.78" length="9.03" width="4.00" shape="503.20,-3.20 507.20,-3.20 507.20,-5.20 492.80,-5.20 492.80,-3.20 496.80,-3.20"/>
    </edge>
    <edge id=":B1_0" function="internal">
        <lane id=":B1_0_0" index="0" disallow="pedestrian" speed="6.51" length="4.75" shape="498.40,507.20 498.05,504.75 497.00,503.00 496.80,502.88"/>
    </edge>
    <edge id=":B1_1" function="internal">
        <lane id=":B1_1_0" index="0" disallow="pedestrian" speed="13.89" length="14.40" shape="498.40,507.20 498.40,492.80"/>
    </edge>
    <edge id=":B1_2" function="internal">
        <lane id=":B1_2_0" index="0" disallow="pedestrian" speed="8.00" length="4.07" shape="498.40,507.20 498.95,503.35 499.04,503.20"/>
    </edge>
    <edge id=":B1_3" function="internal">
        <lane id=":B1_3_0" index="0" disallow="pedestrian" speed="3.65" length="1.44" shape="498.40,507.20 499.20,506.00"/>
    </edge>
    <edge id=":B1_16" function="internal">
        <lane id=":B1_16_0" index="0" disallow="pedestrian" speed="6.51" length="4.28" shape="496.80,502.88 495.25,501.95 492.80,501.60"/>
    </edge>
    <edge id=":B1_17" function="internal">
        <lane id=":B1_17_0" index="0" disallow="pedestrian" speed="8.00" length="10.13" shape="499.04,503.20 500.60,500.60 503.35,498.95 507.20,498.40"/>
    </edge>
    <edge id=":B1_18" function="internal">
        <lane id=":B1_18_0" index="0" disallow="pedestrian" speed="3.65" length="3.23" shape="499.20,506.00 500.00,505.60 500.80,506.00 501.60,507.20"/>
    </edge>
    <edge id=":B1_4" function="internal">
        <lane id=":B1_4_0" index="0" disallow="pedestrian" speed="6.51" length="4.75" shape="507.20,501.60 504.75,501.95 503.00,503.00 502.88,503.20"/>
    </edge>
    <edge id=":B1_5" function="internal">
        <lane id=":B1_5_0" index="0" disallow="pedestrian" speed="13.89" length="14.40" shape="507.20,501.60 492.80,501.60"/>
    </edge>
    <edge id=":B1_6" function="internal">
        <lane id=":B1_6_0" index="0" disallow="pedestrian" speed="8.00" length="4.07" shape="507.20,501.60 503.35,501.05 503.20,500.96"/>
    </edge>
    <edge id=":B1_7" function="internal">
        <lane id=":B1_7_0" index="0" disallow="pedestrian" speed="3.65" length="1.44" shape="507.20,501.60 506.00,500.80"/>
    </edge>
    <edge id=":B1_19" function="internal">
        <lane id=":B1_19_0" index="0" disallow="pedestrian" speed="6.51" length="4.28" shape="502.88,503.20 501.95,504.75 501.60,507.20"/>
    </edge>
    <edge id=":B1_20" function="internal">
        <lane id=":B1_20_0" index="0" disallow="pedestrian" speed="8.00" length="10.13" shape="503.20,500.96 500.60,499.40 498.95,496.65 498.40,492.80"/>
    </edge>
    <edge id=":B1_21" function="internal">
        <lane id=":B1_21_0" index="0" disallow="pedestrian" speed="3.65" length="3.23" shape="506.00,500.80 505.60,500.00 506.00,499.20 507.20,498.40"/>
    </edge>
    <edge id=":B1_8" function="internal">
        <lane id=":B1_8_0" index="0" disallow="pedestrian" speed="6.51" length="4.75" shape="501.60,492.80 501.95,495.25 503.00,497.00 503.20,497.12"/>
    </edge>
    <edge id=":B1_9" function="internal">
        <lane id=":B1_9_0" index="0" disallow="pedestrian" speed="13.89" length="14.40" shape="501.60,492.80 501.60,507.20"/>
    </edge>
    <edge id=":B1_10" function="internal">
        <lane id=":B1_10_0" index="0" disallow="pedestrian" speed="8.00" length="4.07" shape="501.60,492.80 501.05,496.65 500.96,496.80"/>
    </edge>
    <edge id=":B1_11" function="internal">
        <lane id=":B1_11_0" index="0" disallow="pedestrian" speed="3.65" length="1.44" shape="501.60,492.80 500.80,494.00"/>
    </edge>
    <edge id=":B1_22" function="internal">
        <lane id=":B1_22_0" index="0" disallow="pedestrian" speed="6.51" length="4.28" shape="503.20,497.12 504.75,498.05 507.20,498.40"/>
    </edge>
    <edge id=":B1_23" function="internal">
        <lane id=":B1_23_0" index="0" disallow="pedestrian" speed="8.00" length="10.13" shape="500.96,496.80 499.40,499.40 496.65,501.05 492.80,501.60"/>
    </edge>
    <edge id=":B1_24" function="internal">
        <lane id=":B1_24_0" index="0" disallow="pedestrian" speed="3.65" length="3.23" shape="500.80,494.00 500.00,494.40 499.20,494.00 498.40,492.80"/>
    </edge>
    <edge id=":B1_12" function="internal">
        <lane id=":B1_12_0" index="0" disallow="pedestrian" speed="6.51" length="4.75" shape="492.80,498.40 495.25,498.05 497.00,497.00 497.12,496.80"/>
    </edge>
    <edge id=":B1_13" function="internal">
        <lane id=":B1_13_0" index="0" disallow="pedestrian" speed="13.89" length="14.40" shape="492.80,498.40 507.20,498.40"/>
    </edge>
    <edge id=":B1_14" function="internal">
        <lane id=":B1_14_0" index="0" disallow="pedestrian" speed="8.00" length="4.07" shape="492.80,498.40 496.65,498.95 496.80,499.04"/>
    </edge>
    <edge id=":B1_15" function="internal">
        <lane id=":B1_15_0" index="0" disallow="pedestrian" speed="3.65" length="1.44" shape="492.80,498.40 494.00,499.20"/>
    </edge>
    <edge id=":B1_25" function="internal">
        <lane id=":B1_25_0" index="0" disallow="pedestrian" speed="6.51" length="4.28" shape="497.12,496.80 498.05,495.25 498.40,492.80"/>
    </edge>
    <edge id=":B1_26" function="internal">
        <lane id=":B1_26_0" index="0" disallow="pedestrian" speed="8.00" length="10.13" shape="496.80,499.04 499.40,500.60 501.05,503.35 501.60,507.20"/>
    </edge>
    <edge id=":B1_27" function="internal">
        <lane id=":B1_27_0" index="0" disallow="pedestrian" speed="3.65" length="3.23" shape="494.00,499.20 494.40,500.00 494.00,500.80 492.80,501.60"/>
    </edge>
    <edge id=":B1_c0" function="crossing" crossingEdges="B1B2 B2B1">
        <lane id=":B1_c0_0" index="0" allow="pedestrian" speed="2.78" length="6.40" width="4.00" shape="503.20,505.20 496.80,505.20" outlineShape="503.20,507.20 496.80,507.20 492.80,503.20 492.80,505.20 494.80,507.20 496.80,507.20 492.80,503.20 507.20,503.20 505.98,503.31 504.98,503.64 504.20,504.20 503.64,504.98 503.31,505.98"/>
    </edge>
    <edge id=":B1_c1" function="crossing" crossingEdges="B1C1 C1B1">
        <lane id=":B1_c1_0" index="0" allow="pedestrian" speed="2.78" length="6.40" width="4.00" shape="505.20,496.80 505.20,503.20" outlineShape="507.20,496.80 507.20,503.20 503.20,507.20 505.20,507.20 507.20,505.20 507.20,503.20 503.20,507.20 503.20,492.80 503.31,494.02 503.64,495.02 504.20,495.80 504.98,496.36 505.98,496.69"/>
    </edge>
    <edge id=":B1_c2" function="crossing" crossingEdges="B1B0 B0B1">
        <lane id=":B1_c2_0" index="0" allow="pedestrian" speed="2.78" length="6.40" width="4.00" shape="496.80,494.80 503.20,494.80" outlineShape="496.80,492.80 503.20,492.80 507.20,496.80 507.20,494.80 505.20,492.80 503.20,492.80 507.20,496.80 492.80,496.80 494.02,496.69 495.02,496.36 495.80,495.80 496.36,495.02 496.69,494.02"/>
    </edge>
    <edge id=":B1_c3" function="crossing" crossingEdges="B1A1 A1B1">
        <lane id=":B1_c3_0" index="0" allow="pedestrian" speed="2.78" length="6.40" width="4.00" shape="494.80,503.20 494.80,496.80" outlineShape="492.80,503.20 492.80,496.80 496.80,492.80 494.80,492.80 492.80,494.80 492.80,496.80 496.80,492.80 496.80,507.20 496.69,505.98 496.36,504.98 495.80,504.20 495.02,503.64 494.02,503.31"/>
    </edge>
    <edge id=":B1_w0" function="walkingarea">
        <lane id=":B1_w0_0" index="0" allow="pedestrian" speed="2.78" length="3.30" width="4.00" shape="492.80,503.20 492.80,505.20 494.80,507.20 496.80,507.20 496.69,505.98 496.36,504.98 495.80,504.20 495.02,503.64 494.02,503.31"/>
    </edge>
    <edge id=":B1_w1" function="walkingarea">
        <lane id=":B1_w1_0" index="0" allow="pedestrian" speed="2.78" length="3.30" width="4.00" shape="503.20,507.20 505.20,507.20 507.20,505.20 507.20,503.20 505.98,503.31 504.98,503.64 504.20,504.20 503.64,504.98 503.31,505.98"/>
    </edge>
    <edge id=":B1_w2" function="walkingarea">
        <lane id=":B1_w2_0" index="0" allow="pedestrian" speed="2.78" length="3.30" width="4.00" shape="507.20,496.80 507.20,494.80 505.20,492.80 503.20,492.80 503.31,494.02 503.64,495.02 504.20,495.80 504.98,496.36 505.98,496.69"/>
    </edge>
    <edge id=":B1_w3" function="walkingarea">
        <lane id=":B1_w3_0" index="0" allow="pedestrian" speed="2.78" length="3.30" width="4.00" shape="496.80,492.80 494.80,492.80 492.80,494.80 492.80,496.80 494.02,496.69 495.02,496.36 495.80,495.80 496.36,495.02 496.69,494.02"/>
    </edge>
    <edge id=":B2_0" function="internal">
        <lane id=":B2_0_0" index="0" disallow="pedestrian" speed="6.51" length="4.75" shape="498.40,1007.20 498.05,1004.75 497.00,1003.00 496.80,1002.88"/>
    </edge>
    <edge id=":B2_1" function="internal">
        <lane id=":B2_1_0" index="0" disallow="pedestrian" speed="13.89" length="14.40" shape="498.40,1007.20 498.40,992.80"/>
    </edge>
    <edge id=":B2_2" function="internal">
        <lane id=":B2_2_0" index="0" disallow="pedestrian" speed="8.00" length="4.07" shape="498.40,1007.20 498.95,1003.35 499.04,1003.20"/>
    </edge>
    <edge id=":B2_3" function="internal">
        <lane id=":B2_3_0" index="0" disallow="pedestrian" speed="3.65" length="1.44" shape="498.40,1007.20 499.20,1006.00"/>
    </edge>
    <edge id=":B2_16" function="internal">
        <lane id=":B2_16_0" index="0" disallow="pedestrian" speed="6.51" length="4.28" shape="496.80,1002.88 495.25,1001.95 492.80,1001.60"/>
    </edge>
    <edge id=":B2_17" function="internal">
        <lane id=":B2_17_0" index="0" disallow="pedestrian" speed="8.00" length="10.13" shape="499.04,1003.20 500.60,1000.60 503.35,998.95 507.20,998.40"/>
    </edge>
    <edge id=":B2_18" function="internal">
        <lane id=":B2_18_0" index="0" disallow="pedestrian" speed="3.65" length="3.23" shape="499.20,1006.00 500.00,1005.60 500.80,1006.00 501.60,1007.20"/>
    </edge>
    <edge id=":B2_4" function="internal">
        <lane id=":B2_4_0" index="0" disallow="pedestrian" speed="6.51" length="4.75" shape="507.20,1001.60 504.75,1001.95 503.00,1003.00 502.88,1003.20"/>
    </edge>
    <edge id=":B2_5" function="internal">
        <lane id=":B2_5_0" index="0" disallow="pedestrian" speed="13.89" length="14.40" shape="507.20,1001.60 492.80,1001.60"/>
    </edge>
    <edge id=":B2_6" function="internal">
        <lane id=":B2_6_0" index="0" disallow="pedestrian" speed="8.00" length="4.07" shape="507.20,1001.60 503.35,1001.05 503.20,1000.96"/>
    </edge>
    <edge id=":B2_7" function="internal">
        <lane id=":B2_7_0" index="0" disallow="pedestrian" speed="3.65" length="1.44" shape="507.20,1001.60 506.00,1000.80"/>
    </edge>
    <edge id=":B2_19" function="internal">