<?xml version="1.0" encoding="utf-8"?>
<routes xmlns:xsi="http://www.w3.org/2001/XMLSchema-instance" xsi:noNamespaceSchemaLocation="http://sumo.dlr.de/xsd/routes_file.xsd">
  <!-- Vehículos Especiales LATAM -->
  <vType id="moto_imprudent" vClass="motorcycle" width="0.8" minGap="0.0" laneChangeModel="SL2015" lcSublane="1" tau="0.4" sigma="0.9" speedFactor="1.5" jmDriveAfterRedTime="3.0" lcCooperative="0.0" lcPushy="1.5" color="0,1,0"/>
  <vType id="micro_imprudent" vClass="bus" length="7.0" width="2.2" minGap="1.0" laneChangeModel="SL2015" tau="1.0" sigma="0.7" speedFactor="1.2" lcAssertive="1.2" lcImpatience="1.0" color="1,0.5,0">
    <param key="ocupacion" value="0"/>
  </vType>

  <vType id="ped_imprudent" vClass="pedestrian" color="0,1,1" guiShape="pedestrian"/>

  <!-- Conductores de Automóviles -->
  <vType id="imprudent_richard" sigma="1.000" tau="0.774" speedFactor="1.290" accel="0.589" decel="0.883" color="1,0.27,0.27" jmIgnoreKeepClearTime="0" jmIgnoreFoeProb="0.40" jmDriveAfterYellowTime="3.6" jmDriveAfterRedTime="2.0" laneChangeModel="SL2015" lcStrategic="0.3" lcCooperative="0.0" lcSpeedGain="3.0" lcKeepRight="0" lcAssertive="4.6" lcPushy="1">
    <param key="imprudence" value="0.726"/>
    <param key="jmIgnorePriorityProb" value="0.73"/>
    <param key="jmForcePriorityProb" value="0.44"/>
  </vType>
  <vType id="imprudent_alonso" sigma="0.913" tau="1.092" speedFactor="1.163" accel="0.978" decel="1.467" color="1,0.59,0.59" jmIgnoreKeepClearTime="0" jmIgnoreFoeProb="0.33" jmDriveAfterYellowTime="2.0" jmDriveAfterRedTime="1.2" laneChangeModel="SL2015" lcStrategic="0.6" lcCooperative="0.4" lcSpeedGain="2.2" lcKeepRight="0" lcAssertive="3.0" lcPushy="0">
    <param key="imprudence" value="0.408"/>
    <param key="jmIgnorePriorityProb" value="0.41"/>
    <param key="jmForcePriorityProb" value="0.25"/>
  </vType>
  <vType id="imprudent_labeled" sigma="0.904" tau="1.098" speedFactor="1.161" accel="0.632" decel="0.948" color="1,0.60,0.60" jmIgnoreKeepClearTime="0" jmIgnoreFoeProb="0.32" jmDriveAfterYellowTime="2.0" jmDriveAfterRedTime="1.2" laneChangeModel="SL2015" lcStrategic="0.6" lcCooperative="0.4" lcSpeedGain="2.2" lcKeepRight="0" lcAssertive="3.0" lcPushy="0">
    <param key="imprudence" value="0.402"/>
    <param key="jmIgnorePriorityProb" value="0.40"/>
    <param key="jmForcePriorityProb" value="0.24"/>
  </vType>
  <vType id="imprudent_yolanda" sigma="0.824" tau="1.151" speedFactor="1.140" accel="0.670" decel="1.005" color="1,0.65,0.65" jmIgnoreKeepClearTime="0" jmIgnoreFoeProb="0.28" jmDriveAfterYellowTime="1.7" jmDriveAfterRedTime="1.0" laneChangeModel="SL2015" lcStrategic="0.7" lcCooperative="0.5" lcSpeedGain="2.0" lcKeepRight="1" lcAssertive="2.7" lcPushy="0">
    <param key="imprudence" value="0.349"/>
    <param key="jmIgnorePriorityProb" value="0.35"/>
    <param key="jmForcePriorityProb" value="0.21"/>
  </vType>
  <vType id="imprudent_furious" sigma="0.728" tau="1.215" speedFactor="1.114" accel="0.588" decel="0.882" color="1,0.71,0.71" jmIgnoreKeepClearTime="5" jmIgnoreFoeProb="0.23" jmDriveAfterYellowTime="1.4" jmDriveAfterRedTime="0.9" laneChangeModel="SL2015" lcStrategic="0.7" lcCooperative="0.6" lcSpeedGain="1.9" lcKeepRight="1" lcAssertive="2.4" lcPushy="0">
    <param key="imprudence" value="0.285"/>
    <param key="jmIgnorePriorityProb" value="0.29"/>
    <param key="jmForcePriorityProb" value="0.17"/>
  </vType>
  <vType id="imprudent_andres" sigma="0.629" tau="1.280" speedFactor="1.088" accel="0.668" decel="1.002" color="1,0.78,0.78" jmIgnoreKeepClearTime="5" jmIgnoreFoeProb="0.18" jmDriveAfterYellowTime="1.1" jmDriveAfterRedTime="0.7" laneChangeModel="SL2015" lcStrategic="0.8" lcCooperative="0.7" lcSpeedGain="1.7" lcKeepRight="1" lcAssertive="2.1" lcPushy="0">
    <param key="imprudence" value="0.220"/>
    <param key="jmIgnorePriorityProb" value="0.22"/>
    <param key="jmForcePriorityProb" value="0.13"/>
  </vType>
  <vType id="imprudent_pablo" sigma="0.469" tau="1.388" speedFactor="1.045" accel="0.500" decel="0.750" color="1,0.89,0.89" jmIgnoreKeepClearTime="5" jmIgnoreFoeProb="0.09" jmDriveAfterYellowTime="0.6" jmDriveAfterRedTime="0.3" laneChangeModel="SL2015" lcStrategic="0.9" lcCooperative="0.8" lcSpeedGain="1.3" lcKeepRight="1" lcAssertive="1.6" lcPushy="0">
    <param key="imprudence" value="0.112"/>
    <param key="jmIgnorePriorityProb" value="0.11"/>
    <param key="jmForcePriorityProb" value="0.07"/>
  </vType>

  <!-- Rutas -->
  <route id="r_WE_0" edges="A0B0 B0C0 C0D0"/>
  <route id="r_WE_1" edges="A1B1 B1C1 C1D1"/>
  <route id="r_WE_2" edges="A2B2 B2C2 C2D2"/>
  <route id="r_WE_3" edges="A3B3 B3C3 C3D3"/>
  <route id="r_EW_0" edges="D0C0 C0B0 B0A0"/>
  <route id="r_EW_1" edges="D1C1 C1B1 B1A1"/>
  <route id="r_EW_2" edges="D2C2 C2B2 B2A2"/>
  <route id="r_EW_3" edges="D3C3 C3B3 B3A3"/>
  <route id="r_SN_A" edges="A0A1 A1A2 A2A3"/>
  <route id="r_SN_B" edges="B0B1 B1B2 B2B3"/>
  <route id="r_SN_C" edges="C0C1 C1C2 C2C3"/>
  <route id="r_SN_D" edges="D0D1 D1D2 D2D3"/>
  <route id="r_NS_A" edges="A3A2 A2A1 A1A0"/>
  <route id="r_NS_B" edges="B3B2 B2B1 B1B0"/>
  <route id="r_NS_C" edges="C3C2 C2C1 C1C0"/>
  <route id="r_NS_D" edges="D3D2 D2D1 D1D0"/>

  <!-- Flujos de Tráfico Mixto -->
  <vTypeDistribution id="mixed_latam" vTypes="imprudent_richard imprudent_alonso imprudent_labeled imprudent_yolanda imprudent_furious imprudent_andres imprudent_pablo moto_imprudent micro_imprudent" probabilities="0.0857 0.0857 0.0857 0.0857 0.0857 0.0857 0.0857 0.25 0.15"/>

  <flow id="f_latam_000" route="r_WE_0" type="mixed_latam" begin="0" end="3600" period="10"/>
  <flow id="f_latam_001" route="r_WE_1" type="mixed_latam" begin="0" end="3600" period="10"/>
  <flow id="f_latam_002" route="r_WE_2" type="mixed_latam" begin="0" end="3600" period="10"/>
  <flow id="f_latam_003" route="r_WE_3" type="mixed_latam" begin="0" end="3600" period="10"/>
  <flow id="f_latam_004" route="r_EW_0" type="mixed_latam" begin="0" end="3600" period="10"/>
  <flow id="f_latam_005" route="r_EW_1" type="mixed_latam" begin="0" end="3600" period="10"/>
  <flow id="f_latam_006" route="r_EW_2" type="mixed_latam" begin="0" end="3600" period="10"/>
  <flow id="f_latam_007" route="r_EW_3" type="mixed_latam" begin="0" end="3600" period="10"/>
  <flow id="f_latam_008" route="r_SN_A" type="mixed_latam" begin="0" end="3600" period="10"/>
  <flow id="f_latam_009" route="r_SN_B" type="mixed_latam" begin="0" end="3600" period="10"/>
  <flow id="f_latam_010" route="r_SN_C" type="mixed_latam" begin="0" end="3600" period="10"/>
  <flow id="f_latam_011" route="r_SN_D" type="mixed_latam" begin="0" end="3600" period="10"/>
  <flow id="f_latam_012" route="r_NS_A" type="mixed_latam" begin="0" end="3600" period="10"/>
  <flow id="f_latam_013" route="r_NS_B" type="mixed_latam" begin="0" end="3600" period="10"/>
  <flow id="f_latam_014" route="r_NS_C" type="mixed_latam" begin="0" end="3600" period="10"/>
  <flow id="f_latam_015" route="r_NS_D" type="mixed_latam" begin="0" end="3600" period="10"/>
  <vehicle id="parked_000" type="imprudent_andres" route="r_WE_3" depart="17" color="1,0,0">
    <stop lane="A3B3_1" duration="249"/>
  </vehicle>
  <vehicle id="parked_001" type="imprudent_alonso" route="r_EW_3" depart="6" color="1,0,0">
    <stop lane="D3C3_1" duration="248"/>
  </vehicle>
  <vehicle id="parked_002" type="imprudent_andres" route="r_WE_2" depart="2" color="1,0,0">
    <stop lane="C2D2_1" duration="168"/>
  </vehicle>
  <vehicle id="parked_003" type="imprudent_richard" route="r_WE_2" depart="32" color="1,0,0">
    <stop lane="A2B2_1" duration="119"/>
  </vehicle>
  <vehicle id="parked_004" type="imprudent_furious" route="r_WE_0" depart="45" color="1,0,0">
    <stop lane="C0D0_1" duration="110"/>
  </vehicle>
  <vehicle id="parked_005" type="imprudent_andres" route="r_NS_B" depart="37" color="1,0,0">
    <stop lane="B3B2_1" duration="174"/>
  </vehicle>
  <vehicle id="parked_006" type="imprudent_labeled" route="r_WE_0" depart="27" color="1,0,0">
    <stop lane="A0B0_1" duration="238"/>
  </vehicle>
  <vehicle id="parked_007" type="imprudent_labeled" route="r_SN_A" depart="48" color="1,0,0">
    <stop lane="A0A1_1" duration="115"/>
  </vehicle>
  <vehicle id="parked_008" type="imprudent_labeled" route="r_WE_3" depart="6" color="1,0,0">
    <stop lane="A3B3_1" duration="157"/>
  </vehicle>
  <vehicle id="parked_009" type="imprudent_labeled" route="r_SN_D" depart="51" color="1,0,0">
    <stop lane="D2D3_1" duration="127"/>
  </vehicle>
  <vehicle id="parked_010" type="imprudent_richard" route="r_NS_C" depart="59" color="1,0,0">
    <stop lane="C1C0_1" duration="91"/>
  </vehicle>
  <vehicle id="parked_011" type="imprudent_yolanda" route="r_WE_2" depart="53" color="1,0,0">
    <stop lane="C2D2_1" duration="135"/>
  </vehicle>
  <vehicle id="parked_012" type="imprudent_andres" route="r_SN_D" depart="45" color="1,0,0">
    <stop lane="D2D3_1" duration="109"/>
  </vehicle>
  <vehicle id="parked_013" type="imprudent_richard" route="r_WE_1" depart="49" color="1,0,0">
    <stop lane="C1D1_1" duration="118"/>
  </vehicle>
  <vehicle id="parked_014" type="imprudent_labeled" route="r_WE_2" depart="6" color="1,0,0">
    <stop lane="A2B2_1" duration="281"/>
  </vehicle>
  <vehicle id="parked_015" type="imprudent_yolanda" route="r_SN_A" depart="53" color="1,0,0">
    <stop lane="A1A2_1" duration="222"/>
  </vehicle>
  <vehicle id="parked_016" type="imprudent_labeled" route="r_EW_1" depart="13" color="1,0,0">
    <stop lane="C1B1_1" duration="150"/>
  </vehicle>
  <vehicle id="parked_017" type="imprudent_andres" route="r_SN_A" depart="43" color="1,0,0">
    <stop lane="A2A3_1" duration="299"/>
  </vehicle>
  <vehicle id="parked_018" type="imprudent_andres" route="r_WE_2" depart="10" color="1,0,0">
    <stop lane="C2D2_1" duration="222"/>
  </vehicle>
  <vehicle id="parked_019" type="imprudent_furious" route="r_EW_3" depart="24" color="1,0,0">
    <stop lane="D3C3_1" duration="178"/>
  </vehicle>
  <vehicle id="parked_020" type="imprudent_labeled" route="r_EW_3" depart="53" color="1,0,0">
    <stop lane="B3A3_1" duration="143"/>
  </vehicle>
  <vehicle id="parked_021" type="imprudent_pablo" route="r_WE_1" depart="2" color="1,0,0">
    <stop lane="A1B1_1" duration="270"/>
  </vehicle>
  <vehicle id="parked_022" type="imprudent_pablo" route="r_SN_C" depart="4" color="1,0,0">
    <stop lane="C1C2_1" duration="128"/>
  </vehicle>
  <vehicle id="parked_023" type="imprudent_alonso" route="r_SN_C" depart="31" color="1,0,0">
    <stop lane="C0C1_1" duration="227"/>
  </vehicle>
  <vehicle id="parked_024" type="imprudent_yolanda" route="r_NS_C" depart="8" color="1,0,0">
    <stop lane="C3C2_1" duration="127"/>
  </vehicle>

  <!-- Peatones -->
  <personFlow id="ped_flow_000" type="ped_imprudent" begin="0" end="3600" period="13">
    <param key="jaywalk_prob" value="0.3"/>
    <walk from="D1C1" to="D1D0"/>
  </personFlow>
  <personFlow id="ped_flow_001" type="ped_imprudent" begin="0" end="3600" period="14">
    <param key="jaywalk_prob" value="0.3"/>
    <walk from="D1D2" to="C1B1"/>
  </personFlow>
  <personFlow id="ped_flow_002" type="ped_imprudent" begin="0" end="3600" period="11">
    <param key="jaywalk_prob" value="0.3"/>
    <walk from="B0B1" to="A2A1"/>
  </personFlow>
  <personFlow id="ped_flow_003" type="ped_imprudent" begin="0" end="3600" period="7">
    <param key="jaywalk_prob" value="0.3"/>
    <walk from="B3A3" to="B0A0"/>
  </personFlow>
  <personFlow id="ped_flow_004" type="ped_imprudent" begin="0" end="3600" period="6">
    <param key="jaywalk_prob" value="0.3"/>
    <walk from="C2C3" to="C1C2"/>
  </personFlow>
  <personFlow id="ped_flow_005" type="ped_imprudent" begin="0" end="3600" period="7">
    <param key="jaywalk_prob" value="0.3"/>
    <walk from="A1B1" to="B2C2"/>
  </personFlow>
  <personFlow id="ped_flow_006" type="ped_imprudent" begin="0" end="3600" period="15">
    <param key="jaywalk_prob" value="0.3"/>
    <walk from="B2B1" to="B3C3"/>
  </personFlow>
  <personFlow id="ped_flow_007" type="ped_imprudent" begin="0" end="3600" period="6">
    <param key="jaywalk_prob" value="0.3"/>
    <walk from="B0B1" to="A1A0"/>
  </personFlow>
  <personFlow id="ped_flow_008" type="ped_imprudent" begin="0" end="3600" period="12">
    <param key="jaywalk_prob" value="0.3"/>
    <walk from="A0A1" to="A1A0"/>
  </personFlow>
  <personFlow id="ped_flow_009" type="ped_imprudent" begin="0" end="3600" period="13">
    <param key="jaywalk_prob" value="0.3"/>
    <walk from="D0D1" to="C1B1"/>
  </personFlow>
  <personFlow id="ped_flow_010" type="ped_imprudent" begin="0" end="3600" period="6">
    <param key="jaywalk_prob" value="0.3"/>
    <walk from="A0B0" to="C2C1"/>
  </personFlow>
  <personFlow id="ped_flow_011" type="ped_imprudent" begin="0" end="3600" period="9">
    <param key="jaywalk_prob" value="0.3"/>
    <walk from="C2C1" to="D1D2"/>
  </personFlow>
  <personFlow id="ped_flow_012" type="ped_imprudent" begin="0" end="3600" period="6">
    <param key="jaywalk_prob" value="0.3"/>
    <walk from="B1B0" to="D3C3"/>
  </personFlow>
  <personFlow id="ped_flow_013" type="ped_imprudent" begin="0" end="3600" period="7">
    <param key="jaywalk_prob" value="0.3"/>
    <walk from="D2C2" to="B0B1"/>
  </personFlow>
  <personFlow id="ped_flow_014" type="ped_imprudent" begin="0" end="3600" period="9">
    <param key="jaywalk_prob" value="0.3"/>
    <walk from="B2B3" to="A0B0"/>
  </personFlow>
  <personFlow id="ped_flow_015" type="ped_imprudent" begin="0" end="3600" period="13">
    <param key="jaywalk_prob" value="0.3"/>
    <walk from="C2C3" to="C3D3"/>
  </personFlow>
  <personFlow id="ped_flow_016" type="ped_imprudent" begin="0" end="3600" period="9">
    <param key="jaywalk_prob" value="0.3"/>
    <walk from="A2B2" to="B2B1"/>
  </personFlow>
  <personFlow id="ped_flow_017" type="ped_imprudent" begin="0" end="3600" period="14">
    <param key="jaywalk_prob" value="0.3"/>
    <walk from="B2B1" to="C2C3"/>
  </personFlow>
  <personFlow id="ped_flow_018" type="ped_imprudent" begin="0" end="3600" period="10">
    <param key="jaywalk_prob" value="0.3"/>
    <walk from="D0C0" to="A3B3"/>
  </personFlow>
  <personFlow id="ped_flow_019" type="ped_imprudent" begin="0" end="3600" period="13">
    <param key="jaywalk_prob" value="0.3"/>
    <walk from="B3C3" to="D1D2"/>
  </personFlow>

  <!-- Peatones -->
  <person id="ped_0" depart="331" type="ped_imprudent">
    <walk from="A0B0" to="A1A0"/>
  </person>
  <person id="ped_1" depart="114" type="ped_imprudent">
    <walk from="C1C2" to="B0C0"/>
  </person>
  <person id="ped_2" depart="245" type="ped_imprudent">
    <walk from="B3A3" to="C2B2"/>
  </person>
  <person id="ped_3" depart="580" type="ped_imprudent">
    <walk from="A1B1" to="D1C1"/>
  </person>
  <person id="ped_4" depart="497" type="ped_imprudent">
    <walk from="C1D1" to="C1D1"/>
  </person>
  <person id="ped_5" depart="128" type="ped_imprudent">
    <walk from="B1C1" to="D1D2"/>
  </person>
  <person id="ped_6" depart="486" type="ped_imprudent">
    <walk from="C2D2" to="C3C2"/>
  </person>
  <person id="ped_7" depart="271" type="ped_imprudent">
    <walk from="D2D3" to="B3C3"/>
  </person>
  <person id="ped_8" depart="433" type="ped_imprudent">
    <walk from="D0D1" to="A1A0"/>
  </person>
  <person id="ped_9" depart="706" type="ped_imprudent">
    <walk from="C0B0" to="D1D2"/>
  </person>
  <person id="ped_10" depart="319" type="ped_imprudent">
    <walk from="D0C0" to="D3D2"/>
  </person>
  <person id="ped_11" depart="665" type="ped_imprudent">
    <walk from="A1A2" to="C3C2"/>
  </person>
  <person id="ped_12" depart="529" type="ped_imprudent">
    <walk from="B3A3" to="B1B2"/>
  </person>
  <person id="ped_13" depart="253" type="ped_imprudent">
    <walk from="B1B2" to="B2C2"/>
  </person>
  <person id="ped_14" depart="346" type="ped_imprudent">
    <walk from="B0A0" to="B1C1"/>
  </person>
  <person id="ped_15" depart="567" type="ped_imprudent">
    <walk from="B0C0" to="A2A1"/>
  </person>
  <person id="ped_16" depart="225" type="ped_imprudent">
    <walk from="B0A0" to="A2A1"/>
  </person>
  <person id="ped_17" depart="646" type="ped_imprudent">
    <walk from="A0B0" to="B1C1"/>
  </person>
  <person id="ped_18" depart="69" type="ped_imprudent">
    <walk from="A1B1" to="B0A0"/>
  </person>
  <person id="ped_19" depart="72" type="ped_imprudent">
    <walk from="C0D0" to="D3C3"/>
  </person>
  <person id="ped_20" depart="285" type="ped_imprudent">
    <walk from="C2C3" to="D1C1"/>
  </person>
  <person id="ped_21" depart="219" type="ped_imprudent">
    <walk from="C3C2" to="C1C2"/>
  </person>
  <person id="ped_22" depart="584" type="ped_imprudent">
    <walk from="D1D2" to="C2D2"/>
  </person>
  <person id="ped_23" depart="248" type="ped_imprudent">
    <walk from="A3A2" to="C0C1"/>
  </person>
  <person id="ped_24" depart="194" type="ped_imprudent">
    <walk from="C0C1" to="A2A3"/>
  </person>
  <person id="ped_25" depart="674" type="ped_imprudent">
    <walk from="A2B2" to="A2B2"/>
  </person>
  <person id="ped_26" depart="433" type="ped_imprudent">
    <walk from="B0B1" to="C3B3"/>
  </person>
  <person id="ped_27" depart="55" type="ped_imprudent">
    <walk from="A2A3" to="B2B3"/>
  </person>
  <person id="ped_28" depart="661" type="ped_imprudent">
    <walk from="C2C1" to="B1B0"/>
  </person>
  <person id="ped_29" depart="412" type="ped_imprudent">
    <walk from="A2B2" to="A1B1"/>
  </person>
  <person id="ped_30" depart="111" type="ped_imprudent">
    <walk from="D2D1" to="D3C3"/>
  </person>
  <person id="ped_31" depart="194" type="ped_imprudent">
    <walk from="D1C1" to="D0C0"/>
  </person>
  <person id="ped_32" depart="143" type="ped_imprudent">
    <walk from="D1D2" to="B1B2"/>
  </person>
  <person id="ped_33" depart="285" type="ped_imprudent">
    <walk from="B0B1" to="C3D3"/>
  </person>
  <person id="ped_34" depart="77" type="ped_imprudent">
    <walk from="B2B3" to="D1C1"/>
  </person>
  <person id="ped_35" depart="100" type="ped_imprudent">
    <walk from="B1B2" to="D2D3"/>
  </person>
  <person id="ped_36" depart="553" type="ped_imprudent">
    <walk from="A1B1" to="B1B0"/>
  </person>
  <person id="ped_37" depart="242" type="ped_imprudent">
    <walk from="A0B0" to="C1D1"/>
  </person>
  <person id="ped_38" depart="497" type="ped_imprudent">
    <walk from="B3C3" to="A2A3"/>
  </person>
  <person id="ped_39" depart="410" type="ped_imprudent">
    <walk from="C0C1" to="C0B0"/>
  </person>
  <person id="ped_40" depart="388" type="ped_imprudent">
    <walk from="A1B1" to="B3C3"/>
  </person>
  <person id="ped_41" depart="271" type="ped_imprudent">
    <walk from="A0B0" to="A0A1"/>
  </person>
  <person id="ped_42" depart="433" type="ped_imprudent">
    <walk from="B2B3" to="D2C2"/>
  </person>
  <person id="ped_43" depart="569" type="ped_imprudent">
    <walk from="C1C0" to="D2D1"/>
  </person>
  <person id="ped_44" depart="498" type="ped_imprudent">
    <walk from="C3C2" to="D3D2"/>
  </person>
  <person id="ped_45" depart="303" type="ped_imprudent">
    <walk from="A3B3" to="D0C0"/>
  </person>
  <person id="ped_46" depart="593" type="ped_imprudent">
    <walk from="C0B0" to="A1B1"/>
  </person>
  <person id="ped_47" depart="62" type="ped_imprudent">
    <walk from="D1D0" to="D1D2"/>
  </person>
  <person id="ped_48" depart="58" type="ped_imprudent">
    <walk from="D1D0" to="B2A2"/>
  </person>
  <person id="ped_49" depart="488" type="ped_imprudent">
    <walk from="A1B1" to="A2A1"/>
  </person>
  <person id="ped_50" depart="161" type="ped_imprudent">
    <walk from="C2C3" to="D0D1"/>
  </person>
  <person id="ped_51" depart="82" type="ped_imprudent">
    <walk from="A1B1" to="C2C3"/>
  </person>
  <person id="ped_52" depart="609" type="ped_imprudent">
    <walk from="C3D3" to="B1C1"/>
  </person>
  <person id="ped_53" depart="240" type="ped_imprudent">
    <walk from="B1C1" to="C2C1"/>
  </person>
  <person id="ped_54" depart="583" type="ped_imprudent">
    <walk from="A1A2" to="B2C2"/>
  </person>
  <person id="ped_55" depart="608" type="ped_imprudent">
    <walk from="D1C1" to="A2A1"/>
  </person>
  <person id="ped_56" depart="83" type="ped_imprudent">
    <walk from="C0D0" to="B3B2"/>
  </person>
  <person id="ped_57" depart="597" type="ped_imprudent">
    <walk from="A2A3" to="C3C2"/>
  </person>
  <person id="ped_58" depart="323" type="ped_imprudent">
    <walk from="A3A2" to="D0D1"/>
  </person>
  <person id="ped_59" depart="685" type="ped_imprudent">
    <walk from="C1B1" to="C0B0"/>
  </person>
  <person id="ped_60" depart="244" type="ped_imprudent">
    <walk from="D3D2" to="B2A2"/>
  </person>
  <person id="ped_61" depart="134" type="ped_imprudent">
    <walk from="C1B1" to="A1A2"/>
  </person>
  <person id="ped_62" depart="307" type="ped_imprudent">
    <walk from="C3C2" to="B1B0"/>
  </person>
  <person id="ped_63" depart="74" type="ped_imprudent">
    <walk from="B2B3" to="B2A2"/>
  </person>
  <person id="ped_64" depart="636" type="ped_imprudent">
    <walk from="A0B0" to="B2B3"/>
  </person>
  <person id="ped_65" depart="75" type="ped_imprudent">
    <walk from="A3A2" to="A2B2"/>
  </person>
  <person id="ped_66" depart="518" type="ped_imprudent">
    <walk from="D1D2" to="C0B0"/>
  </person>
  <person id="ped_67" depart="357" type="ped_imprudent">
    <walk from="C1B1" to="C2D2"/>
  </person>
  <person id="ped_68" depart="378" type="ped_imprudent">
    <walk from="B1C1" to="D1C1"/>
  </person>
  <person id="ped_69" depart="448" type="ped_imprudent">
    <walk from="D2C2" to="B3C3"/>
  </person>
  <person id="ped_70" depart="309" type="ped_imprudent">
    <walk from="D1D2" to="D3D2"/>
  </person>
  <person id="ped_71" depart="541" type="ped_imprudent">
    <walk from="B3B2" to="B1B0"/>
  </person>
  <person id="ped_72" depart="567" type="ped_imprudent">
    <walk from="A0B0" to="C3C2"/>
  </person>
  <person id="ped_73" depart="106" type="ped_imprudent">
    <walk from="C2B2" to="C3C2"/>
  </person>
  <person id="ped_74" depart="118" type="ped_imprudent">
    <walk from="C2D2" to="C1B1"/>
  </person>
  <person id="ped_75" depart="566" type="ped_imprudent">
    <walk from="A2B2" to="D1D0"/>
  </person>
  <person id="ped_76" depart="288" type="ped_imprudent">
    <walk from="A3B3" to="B1A1"/>
  </person>
  <person id="ped_77" depart="351" type="ped_imprudent">
    <walk from="A1A0" to="C0B0"/>
  </person>
  <person id="ped_78" depart="649" type="ped_imprudent">
    <walk from="C0B0" to="C2C1"/>
  </person>
  <person id="ped_79" depart="500" type="ped_imprudent">
    <walk from="C1B1" to="C2C3"/>
  </person>
  <person id="ped_80" depart="94" type="ped_imprudent">
    <walk from="C1B1" to="A1B1"/>
  </person>
  <person id="ped_81" depart="283" type="ped_imprudent">
    <walk from="B2B1" to="B0B1"/>
  </person>
  <person id="ped_82" depart="341" type="ped_imprudent">
    <walk from="C0D0" to="A0B0"/>
  </person>
  <person id="ped_83" depart="268" type="ped_imprudent">
    <walk from="C2D2" to="B2B1"/>
  </person>
  <person id="ped_84" depart="452" type="ped_imprudent">
    <walk from="B3C3" to="D1D0"/>
  </person>
  <person id="ped_85" depart="437" type="ped_imprudent">
    <walk from="D2D3" to="D3D2"/>
  </person>
  <person id="ped_86" depart="114" type="ped_imprudent">
    <walk from="D2D3" to="A0B0"/>
  </person>
  <person id="ped_87" depart="152" type="ped_imprudent">
    <walk from="B1C1" to="C1C0"/>
  </person>
  <person id="ped_88" depart="378" type="ped_imprudent">
    <walk from="D1D2" to="C0D0"/>
  </person>
  <person id="ped_89" depart="151" type="ped_imprudent">
    <walk from="A2A1" to="D2D3"/>
  </person>
  <person id="ped_90" depart="42" type="ped_imprudent">
    <walk from="B0B1" to="C2D2"/>
  </person>
  <person id="ped_91" depart="40" type="ped_imprudent">
    <walk from="C2B2" to="B3A3"/>
  </person>
  <person id="ped_92" depart="698" type="ped_imprudent">
    <walk from="C3B3" to="C0B0"/>
  </person>
  <person id="ped_93" depart="105" type="ped_imprudent">
    <walk from="D1C1" to="C3C2"/>
  </person>
  <person id="ped_94" depart="416" type="ped_imprudent">
    <walk from="C3B3" to="D2D3"/>
  </person>
  <person id="ped_95" depart="158" type="ped_imprudent">
    <walk from="B3B2" to="D1D0"/>
  </person>
  <person id="ped_96" depart="181" type="ped_imprudent">
    <walk from="D1C1" to="B3C3"/>
  </person>
  <person id="ped_97" depart="183" type="ped_imprudent">
    <walk from="A2A3" to="B0C0"/>
  </person>
  <person id="ped_98" depart="421" type="ped_imprudent">
    <walk from="D1D0" to="D3C3"/>
  </person>
  <person id="ped_99" depart="254" type="ped_imprudent">
    <walk from="C3C2" to="D1D0"/>
  </person>
  <person id="ped_100" depart="718" type="ped_imprudent">
    <walk from="B1A1" to="B3C3"/>
  </person>
  <person id="ped_101" depart="39" type="ped_imprudent">
    <walk from="A2B2" to="A0A1"/>
  </person>
  <person id="ped_102" depart="204" type="ped_imprudent">
    <walk from="C0C1" to="B0A0"/>
  </person>
  <person id="ped_103" depart="312" type="ped_imprudent">
    <walk from="B2B3" to="C3B3"/>
  </person>
  <person id="ped_104" depart="24" type="ped_imprudent">
    <walk from="B0A0" to="B0A0"/>
  </person>
  <person id="ped_105" depart="408" type="ped_imprudent">
    <walk from="C3C2" to="D0C0"/>
  </person>
  <person id="ped_106" depart="71" type="ped_imprudent">
    <walk from="D3C3" to="B1A1"/>
  </person>
  <person id="ped_107" depart="656" type="ped_imprudent">
    <walk from="B1A1" to="C3B3"/>
  </person>
  <person id="ped_108" depart="695" type="ped_imprudent">
    <walk from="C2C3" to="A1A2"/>
  </person>
  <person id="ped_109" depart="28" type="ped_imprudent">
    <walk from="D1D2" to="D3C3"/>
  </person>
  <person id="ped_110" depart="182" type="ped_imprudent">
    <walk from="B2C2" to="C1B1"/>
  </person>
  <person id="ped_111" depart="39" type="ped_imprudent">
    <walk from="A2A1" to="C1B1"/>
  </person>
  <person id="ped_112" depart="444" type="ped_imprudent">
    <walk from="A2B2" to="A1A0"/>
  </person>
  <person id="ped_113" depart="321" type="ped_imprudent">
    <walk from="C3B3" to="D2D1"/>
  </person>
  <person id="ped_114" depart="523" type="ped_imprudent">
    <walk from="B0B1" to="A1A0"/>
  </person>
  <person id="ped_115" depart="590" type="ped_imprudent">
    <walk from="B2C2" to="A0A1"/>
  </person>
  <person id="ped_116" depart="45" type="ped_imprudent">
    <walk from="D0C0" to="C1B1"/>
  </person>
  <person id="ped_117" depart="1" type="ped_imprudent">
    <walk from="D3D2" to="B0B1"/>
  </person>
  <person id="ped_118" depart="703" type="ped_imprudent">
    <walk from="D0D1" to="D1D2"/>
  </person>
  <person id="ped_119" depart="686" type="ped_imprudent">
    <walk from="D2D1" to="D1D0"/>
  </person>
  <person id="ped_120" depart="441" type="ped_imprudent">
    <walk from="D0C0" to="B3A3"/>
  </person>
  <person id="ped_121" depart="338" type="ped_imprudent">
    <walk from="B1C1" to="C3C2"/>
  </person>
  <person id="ped_122" depart="679" type="ped_imprudent">
    <walk from="B3B2" to="B2A2"/>
  </person>
  <person id="ped_123" depart="307" type="ped_imprudent">
    <walk from="B2C2" to="D2D1"/>
  </person>
  <person id="ped_124" depart="682" type="ped_imprudent">
    <walk from="C2C3" to="C2B2"/>
  </person>
  <person id="ped_125" depart="412" type="ped_imprudent">
    <walk from="A2A3" to="B2A2"/>
  </person>
  <person id="ped_126" depart="567" type="ped_imprudent">
    <walk from="C1C0" to="D2C2"/>
  </person>
  <person id="ped_127" depart="430" type="ped_imprudent">
    <walk from="C2D2" to="D0C0"/>
  </person>
  <person id="ped_128" depart="693" type="ped_imprudent">
    <walk from="C3C2" to="A0A1"/>
  </person>
  <person id="ped_129" depart="630" type="ped_imprudent">
    <walk from="D1D0" to="C3D3"/>
  </person>
  <person id="ped_130" depart="415" type="ped_imprudent">
    <walk from="A3A2" to="C2B2"/>
  </person>
  <person id="ped_131" depart="311" type="ped_imprudent">
    <walk from="D2D3" to="A0B0"/>
  </person>
  <person id="ped_132" depart="440" type="ped_imprudent">
    <walk from="D2C2" to="C0B0"/>
  </person>
  <person id="ped_133" depart="670" type="ped_imprudent">
    <walk from="A2A1" to="A1A0"/>
  </person>
  <person id="ped_134" depart="452" type="ped_imprudent">
    <walk from="B2A2" to="B2B3"/>
  </person>
  <person id="ped_135" depart="218" type="ped_imprudent">
    <walk from="B1B2" to="C2C1"/>
  </person>
  <person id="ped_136" depart="173" type="ped_imprudent">
    <walk from="C2C3" to="C0C1"/>
  </person>
  <person id="ped_137" depart="290" type="ped_imprudent">
    <walk from="C3C2" to="C1D1"/>
  </person>
  <person id="ped_138" depart="648" type="ped_imprudent">
    <walk from="C2C3" to="C3C2"/>
  </person>
  <person id="ped_139" depart="95" type="ped_imprudent">
    <walk from="B3B2" to="D3C3"/>
  </person>
  <person id="ped_140" depart="317" type="ped_imprudent">
    <walk from="D1C1" to="C2C1"/>
  </person>
  <person id="ped_141" depart="150" type="ped_imprudent">
    <walk from="B0A0" to="D0C0"/>
  </person>
  <person id="ped_142" depart="250" type="ped_imprudent">
    <walk from="B0C0" to="C0D0"/>
  </person>
  <person id="ped_143" depart="74" type="ped_imprudent">
    <walk from="C0C1" to="B3B2"/>
  </person>
  <person id="ped_144" depart="644" type="ped_imprudent">
    <walk from="B2B3" to="A2A3"/>
  </person>
  <person id="ped_145" depart="713" type="ped_imprudent">
    <walk from="A3A2" to="D0C0"/>
  </person>
  <person id="ped_146" depart="409" type="ped_imprudent">
    <walk from="A0A1" to="C1C2"/>
  </person>
  <person id="ped_147" depart="671" type="ped_imprudent">
    <walk from="D1C1" to="A3B3"/>
  </person>
  <person id="ped_148" depart="109" type="ped_imprudent">
    <walk from="C1C0" to="A0B0"/>
  </person>
  <person id="ped_149" depart="180" type="ped_imprudent">
    <walk from="B0B1" to="B0A0"/>
  </person>
  <person id="ped_150" depart="475" type="ped_imprudent">
    <walk from="C1C0" to="D0D1"/>
  </person>
  <person id="ped_151" depart="255" type="ped_imprudent">