<?xml version="1.0" encoding="utf-8"?>
<routes xmlns:xsi="http://www.w3.org/2001/XMLSchema-instance" xsi:noNamespaceSchemaLocation="http://sumo.dlr.de/xsd/routes_file.xsd">
  <!-- Tráfico Normal (Baseline) -->
  <vType id="ped_normal" vClass="pedestrian" color="0,1,1" guiShape="pedestrian"/>
  <vType id="car" length="4.5" minGap="2.5" maxSpeed="13.89" sigma="0.5" tau="1.0" color="1,1,1" laneChangeModel="SL2015"/>
  <vType id="moto" vClass="motorcycle" width="0.8" minGap="1.0" maxSpeed="15.0" sigma="0.5" tau="1.0" color="0,1,0" laneChangeModel="SL2015"/>
  <vType id="bus" vClass="bus" length="7.0" width="2.2" minGap="2.5" maxSpeed="12.0" sigma="0.5" tau="1.0" color="1,0.5,0" laneChangeModel="SL2015"/>

  <vTypeDistribution id="mixed_normal" vTypes="car moto bus" probabilities="0.60 0.25 0.15"/>


  <!-- Rutas de la Red Hangzhou 4x4 -->
  <route id="r_WE_0" edges="A0B0 B0C0 C0D0"/>
  <route id="r_WE_1" edges="A1B1 B1C1 C1D1"/>
  <route id="r_WE_2" edges="A2B2 B2C2 C2D2"/>
  <route id="r_WE_3" edges="A3B3 B3C3 C3D3"/>
  <route id="r_EW_0" edges="D0C0 C0B0 B0A0"/>
  <route id="r_EW_1" edges="D1C1 C1B1 B1A1"/>
  <route id="r_EW_2" edges="D2C2 C2B2 B2A2"/>
  <route id="r_EW_3" edges="D3C3 C3B3 B3A3"/>
  <route id="r_SN_A" edges="A0A1 A1A2 A2A3"/>
  <route id="r_SN_B" edges="B0B1 B1B2 B2B3"/>
  <route id="r_SN_C" edges="C0C1 C1C2 C2C3"/>
  <route id="r_SN_D" edges="D0D1 D1D2 D2D3"/>
  <route id="r_NS_A" edges="A3A2 A2A1 A1A0"/>
  <route id="r_NS_B" edges="B3B2 B2B1 B1B0"/>
  <route id="r_NS_C" edges="C3C2 C2C1 C1C0"/>
  <route id="r_NS_D" edges="D3D2 D2D1 D1D0"/>

  <!-- Flujos de Tráfico Normal -->
  <flow id="f_normal_000" route="r_WE_0" type="mixed_normal" begin="0" end="3600" period="10"/>
  <flow id="f_normal_001" route="r_WE_1" type="mixed_normal" begin="0" end="3600" period="10"/>
  <flow id="f_normal_002" route="r_WE_2" type="mixed_normal" begin="0" end="3600" period="10"/>
  <flow id="f_normal_003" route="r_WE_3" type="mixed_normal" begin="0" end="3600" period="10"/>
  <flow id="f_normal_004" route="r_EW_0" type="mixed_normal" begin="0" end="3600" period="10"/>
  <flow id="f_normal_005" route="r_EW_1" type="mixed_normal" begin="0" end="3600" period="10"/>
  <flow id="f_normal_006" route="r_EW_2" type="mixed_normal" begin="0" end="3600" period="10"/>
  <flow id="f_normal_007" route="r_EW_3" type="mixed_normal" begin="0" end="3600" period="10"/>
  <flow id="f_normal_008" route="r_SN_A" type="mixed_normal" begin="0" end="3600" period="10"/>
  <flow id="f_normal_009" route="r_SN_B" type="mixed_normal" begin="0" end="3600" period="10"/>
  <flow id="f_normal_010" route="r_SN_C" type="mixed_normal" begin="0" end="3600" period="10"/>
  <flow id="f_normal_011" route="r_SN_D" type="mixed_normal" begin="0" end="3600" period="10"/>
  <flow id="f_normal_012" route="r_NS_A" type="mixed_normal" begin="0" end="3600" period="10"/>
  <flow id="f_normal_013" route="r_NS_B" type="mixed_normal" begin="0" end="3600" period="10"/>
  <flow id="f_normal_014" route="r_NS_C" type="mixed_normal" begin="0" end="3600" period="10"/>
  <flow id="f_normal_015" route="r_NS_D" type="mixed_normal" begin="0" end="3600" period="10"/>

  <!-- Vehículos extra (equivalentes a los estacionados en LATAM pero circulando normal) -->
  <vehicle id="normal_000" type="car" route="r_WE_3" depart="1"/>
  <vehicle id="normal_001" type="car" route="r_SN_A" depart="15"/>
  <vehicle id="normal_002" type="car" route="r_EW_3" depart="8"/>
  <vehicle id="normal_003" type="car" route="r_WE_3" depart="43"/>
  <vehicle id="normal_004" type="car" route="r_WE_2" depart="37"/>
  <vehicle id="normal_005" type="car" route="r_NS_B" depart="2"/>
  <vehicle id="normal_006" type="car" route="r_WE_0" depart="5"/>
  <vehicle id="normal_007" type="car" route="r_EW_2" depart="14"/>
  <vehicle id="normal_008" type="car" route="r_WE_0" depart="35"/>
  <vehicle id="normal_009" type="car" route="r_EW_2" depart="45"/>
  <vehicle id="normal_010" type="car" route="r_NS_B" depart="14"/>
  <vehicle id="normal_011" type="car" route="r_NS_C" depart="37"/>
  <vehicle id="normal_012" type="car" route="r_SN_A" depart="51"/>
  <vehicle id="normal_013" type="car" route="r_WE_0" depart="48"/>
  <vehicle id="normal_014" type="car" route="r_EW_1" depart="44"/>
  <vehicle id="normal_015" type="car" route="r_NS_B" depart="21"/>
  <vehicle id="normal_016" type="car" route="r_SN_A" depart="9"/>
  <vehicle id="normal_017" type="car" route="r_EW_2" depart="48"/>
  <vehicle id="normal_018" type="car" route="r_SN_C" depart="6"/>
  <vehicle id="normal_019" type="car" route="r_WE_2" depart="24"/>
  <vehicle id="normal_020" type="car" route="r_WE_3" depart="22"/>
  <vehicle id="normal_021" type="car" route="r_SN_D" depart="38"/>
  <vehicle id="normal_022" type="car" route="r_SN_A" depart="51"/>
  <vehicle id="normal_023" type="car" route="r_WE_1" depart="46"/>
  <vehicle id="normal_024" type="car" route="r_NS_C" depart="34"/>
  <vehicle id="normal_025" type="car" route="r_WE_3" depart="59"/>
  <vehicle id="normal_026" type="car" route="r_NS_A" depart="5"/>
  <vehicle id="normal_027" type="car" route="r_SN_B" depart="53"/>
  <vehicle id="normal_028" type="car" route="r_SN_D" depart="36"/>
  <vehicle id="normal_029" type="car" route="r_EW_2" depart="45"/>
  <vehicle id="normal_030" type="car" route="r_WE_2" depart="2"/>
  <vehicle id="normal_031" type="car" route="r_EW_3" depart="49"/>
  <vehicle id="normal_032" type="car" route="r_SN_B" depart="5"/>
  <vehicle id="normal_033" type="car" route="r_EW_3" depart="55"/>
  <vehicle id="normal_034" type="car" route="r_WE_3" depart="24"/>
  <vehicle id="normal_035" type="car" route="r_SN_A" depart="29"/>
  <vehicle id="normal_036" type="car" route="r_SN_D" depart="10"/>
  <vehicle id="normal_037" type="car" route="r_SN_D" depart="22"/>
  <vehicle id="normal_038" type="car" route="r_EW_2" depart="42"/>
  <vehicle id="normal_039" type="car" route="r_SN_A" depart="44"/>
  <vehicle id="normal_040" type="car" route="r_WE_2" depart="38"/>
  <vehicle id="normal_041" type="car" route="r_EW_1" depart="34"/>
  <vehicle id="normal_042" type="car" route="r_EW_3" depart="10"/>
  <vehicle id="normal_043" type="car" route="r_NS_C" depart="24"/>
  <vehicle id="normal_044" type="car" route="r_SN_A" depart="59"/>
  <vehicle id="normal_045" type="car" route="r_EW_3" depart="43"/>
  <vehicle id="normal_046" type="car" route="r_SN_C" depart="53"/>
  <vehicle id="normal_047" type="car" route="r_WE_1" depart="14"/>
  <vehicle id="normal_048" type="car" route="r_WE_1" depart="51"/>
  <vehicle id="normal_049" type="car" route="r_SN_C" depart="25"/>

  <!-- Peatones -->
  <person id="ped_0" depart="216" type="ped_normal">
    <walk from="D2D1" to="B2A2"/>
  </person>
  <person id="ped_1" depart="322" type="ped_normal">
    <walk from="C2D2" to="B1A1"/>
  </person>
  <person id="ped_2" depart="511" type="ped_normal">
    <walk from="A2A1" to="D3D2"/>
  </person>
  <person id="ped_3" depart="469" type="ped_normal">
    <walk from="B3A3" to="D3D2"/>
  </person>
  <person id="ped_4" depart="142" type="ped_normal">
    <walk from="A0A1" to="A2B2"/>
  </person>
  <person id="ped_5" depart="574" type="ped_normal">
    <walk from="D0C0" to="D1C1"/>
  </person>
  <person id="ped_6" depart="598" type="ped_normal">
    <walk from="B1C1" to="A2B2"/>
  </person>
  <person id="ped_7" depart="408" type="ped_normal">
    <walk from="B1B2" to="D0D1"/>
  </person>
  <person id="ped_8" depart="141" type="ped_normal">
    <walk from="B3B2" to="B2C2"/>
  </person>
  <person id="ped_9" depart="93" type="ped_normal">
    <walk from="B2B1" to="A1A2"/>
  </person>
  <person id="ped_10" depart="156" type="ped_normal">
    <walk from="B2B3" to="A3A2"/>
  </person>
  <person id="ped_11" depart="696" type="ped_normal">
    <walk from="C0C1" to="C1D1"/>
  </person>
  <person id="ped_12" depart="65" type="ped_normal">
    <walk from="B1B2" to="C2C1"/>
  </person>
  <person id="ped_13" depart="610" type="ped_normal">
    <walk from="A1A0" to="A1A0"/>
  </person>
  <person id="ped_14" depart="257" type="ped_normal">
    <walk from="D3C3" to="B0A0"/>
  </person>
  <person id="ped_15" depart="696" type="ped_normal">
    <walk from="B0C0" to="C0D0"/>
  </person>
  <person id="ped_16" depart="698" type="ped_normal">
    <walk from="C3C2" to="A3A2"/>
  </person>
  <person id="ped_17" depart="656" type="ped_normal">
    <walk from="B1C1" to="D2D1"/>
  </person>
  <person id="ped_18" depart="300" type="ped_normal">
    <walk from="A2A3" to="A3A2"/>
  </person>
  <person id="ped_19" depart="464" type="ped_normal">
    <walk from="B1B2" to="C1D1"/>
  </person>
  <person id="ped_20" depart="269" type="ped_normal">
    <walk from="C0D0" to="C3C2"/>
  </person>
  <person id="ped_21" depart="519" type="ped_normal">
    <walk from="B2B1" to="C2C3"/>
  </person>
  <person id="ped_22" depart="305" type="ped_normal">
    <walk from="C1C2" to="C0C1"/>
  </person>
  <person id="ped_23" depart="623" type="ped_normal">
    <walk from="C0C1" to="B2B1"/>
  </person>
  <person id="ped_24" depart="382" type="ped_normal">
    <walk from="B0B1" to="A0A1"/>
  </person>
  <person id="ped_25" depart="543" type="ped_normal">
    <walk from="C1D1" to="B1C1"/>
  </person>
  <person id="ped_26" depart="331" type="ped_normal">
    <walk from="C0D0" to="C2C1"/>
  </person>
  <person id="ped_27" depart="114" type="ped_normal">
    <walk from="A1A2" to="A3B3"/>
  </person>
  <person id="ped_28" depart="245" type="ped_normal">
    <walk from="B3B2" to="D2C2"/>
  </person>
  <person id="ped_29" depart="580" type="ped_normal">
    <walk from="B2B3" to="D0C0"/>
  </person>
  <person id="ped_30" depart="497" type="ped_normal">
    <walk from="C2B2" to="C2B2"/>
  </person>
  <person id="ped_31" depart="128" type="ped_normal">
    <walk from="B2A2" to="B1C1"/>
  </person>
  <person id="ped_32" depart="486" type="ped_normal">
    <walk from="B3C3" to="D1D2"/>
  </person>
  <person id="ped_33" depart="271" type="ped_normal">
    <walk from="B0C0" to="C1D1"/>
  </person>
  <person id="ped_34" depart="433" type="ped_normal">
    <walk from="B0A0" to="C2C1"/>
  </person>
  <person id="ped_35" depart="706" type="ped_normal">
    <walk from="A2A1" to="B1C1"/>
  </person>
  <person id="ped_36" depart="319" type="ped_normal">
    <walk from="B0B1" to="B1A1"/>
  </person>
  <person id="ped_37" depart="665" type="ped_normal">
    <walk from="B3A3" to="D1D2"/>
  </person>
  <person id="ped_38" depart="529" type="ped_normal">
    <walk from="B3B2" to="B1B0"/>
  </person>
  <person id="ped_39" depart="253" type="ped_normal">
    <walk from="B1B0" to="A3A2"/>
  </person>
  <person id="ped_40" depart="346" type="ped_normal">
    <walk from="B2C2" to="B2A2"/>
  </person>
  <person id="ped_41" depart="567" type="ped_normal">
    <walk from="A3B3" to="D0D1"/>
  </person>
  <person id="ped_42" depart="225" type="ped_normal">
    <walk from="B2C2" to="D0D1"/>
  </person>
  <person id="ped_43" depart="646" type="ped_normal">
    <walk from="C0D0" to="B2A2"/>
  </person>
  <person id="ped_44" depart="69" type="ped_normal">
    <walk from="B2B3" to="B2C2"/>
  </person>
  <person id="ped_45" depart="72" type="ped_normal">
    <walk from="C1B1" to="A2A3"/>
  </person>
  <person id="ped_46" depart="285" type="ped_normal">
    <walk from="B2B1" to="D0C0"/>
  </person>
  <person id="ped_47" depart="219" type="ped_normal">
    <walk from="D1D2" to="A1A2"/>
  </person>
  <person id="ped_48" depart="584" type="ped_normal">
    <walk from="B1C1" to="B3C3"/>
  </person>
  <person id="ped_49" depart="248" type="ped_normal">
    <walk from="C2D2" to="C1C0"/>
  </person>
  <person id="ped_50" depart="194" type="ped_normal">
    <walk from="C1C0" to="D2D3"/>
  </person>
  <person id="ped_51" depart="674" type="ped_normal">
    <walk from="C1C2" to="C1C2"/>
  </person>
  <person id="ped_52" depart="433" type="ped_normal">
    <walk from="B1B2" to="C3B3"/>
  </person>
  <person id="ped_53" depart="55" type="ped_normal">
    <walk from="D2D3" to="D3C3"/>
  </person>
  <person id="ped_54" depart="661" type="ped_normal">
    <walk from="C0B0" to="D3D2"/>
  </person>
  <person id="ped_55" depart="412" type="ped_normal">
    <walk from="C1C2" to="B2B3"/>
  </person>
  <person id="ped_56" depart="111" type="ped_normal">
    <walk from="C3C2" to="A2A3"/>
  </person>
  <person id="ped_57" depart="194" type="ped_normal">
    <walk from="D0C0" to="B0B1"/>
  </person>
  <person id="ped_58" depart="143" type="ped_normal">
    <walk from="B1C1" to="B1B0"/>
  </person>
  <person id="ped_59" depart="285" type="ped_normal">
    <walk from="B1B2" to="C2C3"/>
  </person>
  <person id="ped_60" depart="77" type="ped_normal">
    <walk from="D3C3" to="D0C0"/>
  </person>
  <person id="ped_61" depart="100" type="ped_normal">
    <walk from="B1B0" to="B0C0"/>
  </person>
  <person id="ped_62" depart="553" type="ped_normal">
    <walk from="B2B3" to="D3D2"/>
  </person>
  <person id="ped_63" depart="242" type="ped_normal">
    <walk from="C0D0" to="C2B2"/>
  </person>
  <person id="ped_64" depart="497" type="ped_normal">
    <walk from="C1D1" to="D2D3"/>
  </person>
  <person id="ped_65" depart="410" type="ped_normal">
    <walk from="C1C0" to="A2A1"/>
  </person>
  <person id="ped_66" depart="388" type="ped_normal">
    <walk from="B2B3" to="C1D1"/>
  </person>
  <person id="ped_67" depart="271" type="ped_normal">
    <walk from="C0D0" to="A1A0"/>
  </person>
  <person id="ped_68" depart="433" type="ped_normal">
    <walk from="D3C3" to="C3D3"/>
  </person>
  <person id="ped_69" depart="569" type="ped_normal">
    <walk from="A0B0" to="C3C2"/>
  </person>
  <person id="ped_70" depart="498" type="ped_normal">
    <walk from="D1D2" to="B1A1"/>
  </person>
  <person id="ped_71" depart="303" type="ped_normal">
    <walk from="A0A1" to="B0B1"/>
  </person>
  <person id="ped_72" depart="593" type="ped_normal">
    <walk from="A2A1" to="B2B3"/>
  </person>
  <person id="ped_73" depart="62" type="ped_normal">
    <walk from="D1C1" to="B1C1"/>
  </person>
  <person id="ped_74" depart="58" type="ped_normal">
    <walk from="D1C1" to="A1B1"/>
  </person>
  <person id="ped_75" depart="488" type="ped_normal">
    <walk from="B2B3" to="D0D1"/>
  </person>
  <person id="ped_76" depart="161" type="ped_normal">
    <walk from="B2B1" to="B0A0"/>
  </person>
  <person id="ped_77" depart="82" type="ped_normal">
    <walk from="B2B3" to="B2B1"/>
  </person>
  <person id="ped_78" depart="609" type="ped_normal">
    <walk from="C2C3" to="B2A2"/>
  </person>
  <person id="ped_79" depart="240" type="ped_normal">
    <walk from="B2A2" to="C0B0"/>
  </person>
  <person id="ped_80" depart="583" type="ped_normal">
    <walk from="B3A3" to="A3A2"/>
  </person>
  <person id="ped_81" depart="608" type="ped_normal">
    <walk from="D0C0" to="D0D1"/>
  </person>
  <person id="ped_82" depart="83" type="ped_normal">
    <walk from="C1B1" to="D1D0"/>
  </person>
  <person id="ped_83" depart="597" type="ped_normal">
    <walk from="D2D3" to="D1D2"/>
  </person>
  <person id="ped_84" depart="323" type="ped_normal">
    <walk from="C2D2" to="B0A0"/>
  </person>
  <person id="ped_85" depart="685" type="ped_normal">
    <walk from="A2B2" to="A2A1"/>
  </person>
  <person id="ped_86" depart="244" type="ped_normal">
    <walk from="B1A1" to="A1B1"/>
  </person>
  <person id="ped_87" depart="134" type="ped_normal">
    <walk from="A2B2" to="B3A3"/>
  </person>
  <person id="ped_88" depart="307" type="ped_normal">
    <walk from="D1D2" to="D3D2"/>
  </person>
  <person id="ped_89" depart="74" type="ped_normal">
    <walk from="D3C3" to="A1B1"/>
  </person>
  <person id="ped_90" depart="636" type="ped_normal">
    <walk from="C0D0" to="D3C3"/>
  </person>
  <person id="ped_91" depart="75" type="ped_normal">
    <walk from="C2D2" to="C1C2"/>
  </person>
  <person id="ped_92" depart="518" type="ped_normal">
    <walk from="B1C1" to="A2A1"/>
  </person>
  <person id="ped_93" depart="357" type="ped_normal">
    <walk from="A2B2" to="B3C3"/>
  </person>
  <person id="ped_94" depart="378" type="ped_normal">
    <walk from="B2A2" to="D0C0"/>
  </person>
  <person id="ped_95" depart="448" type="ped_normal">
    <walk from="C3D3" to="C1D1"/>
  </person>
  <person id="ped_96" depart="309" type="ped_normal">
    <walk from="B1C1" to="B1A1"/>
  </person>
  <person id="ped_97" depart="541" type="ped_normal">
    <walk from="D1D0" to="D3D2"/>
  </person>
  <person id="ped_98" depart="567" type="ped_normal">
    <walk from="C0D0" to="D1D2"/>
  </person>
  <person id="ped_99" depart="106" type="ped_normal">
    <walk from="D2C2" to="D1D2"/>
  </person>
  <person id="ped_100" depart="118" type="ped_normal">
    <walk from="B3C3" to="A2B2"/>
  </person>
  <person id="ped_101" depart="566" type="ped_normal">
    <walk from="C1C2" to="D1C1"/>
  </person>
  <person id="ped_102" depart="288" type="ped_normal">
    <walk from="A0A1" to="D2D1"/>
  </person>
  <person id="ped_103" depart="351" type="ped_normal">
    <walk from="C2C1" to="A2A1"/>
  </person>
  <person id="ped_104" depart="649" type="ped_normal">
    <walk from="A2A1" to="C0B0"/>
  </person>
  <person id="ped_105" depart="500" type="ped_normal">
    <walk from="A2B2" to="B2B1"/>
  </person>
  <person id="ped_106" depart="94" type="ped_normal">
    <walk from="A2B2" to="B2B3"/>
  </person>
  <person id="ped_107" depart="283" type="ped_normal">
    <walk from="C0C1" to="B1B2"/>
  </person>
  <person id="ped_108" depart="341" type="ped_normal">
    <walk from="C1B1" to="C0D0"/>
  </person>
  <person id="ped_109" depart="268" type="ped_normal">
    <walk from="B3C3" to="C0C1"/>
  </person>
  <person id="ped_110" depart="452" type="ped_normal">
    <walk from="C1D1" to="D1C1"/>
  </person>
  <person id="ped_111" depart="437" type="ped_normal">
    <walk from="B0C0" to="B1A1"/>
  </person>
  <person id="ped_112" depart="114" type="ped_normal">
    <walk from="B0C0" to="C0D0"/>
  </person>
  <person id="ped_113" depart="152" type="ped_normal">
    <walk from="B2A2" to="A0B0"/>
  </person>
  <person id="ped_114" depart="378" type="ped_normal">
    <walk from="B1C1" to="C1B1"/>
  </person>
  <person id="ped_115" depart="151" type="ped_normal">
    <walk from="D0D1" to="B0C0"/>
  </person>
  <person id="ped_116" depart="42" type="ped_normal">
    <walk from="B1B2" to="B3C3"/>
  </person>
  <person id="ped_117" depart="40" type="ped_normal">
    <walk from="D2C2" to="B3B2"/>
  </person>
  <person id="ped_118" depart="698" type="ped_normal">
    <walk from="C3B3" to="A2A1"/>
  </person>
  <person id="ped_119" depart="105" type="ped_normal">
    <walk from="D0C0" to="D1D2"/>
  </person>
  <person id="ped_120" depart="416" type="ped_normal">
    <walk from="C3B3" to="B0C0"/>
  </person>
  <person id="ped_121" depart="158" type="ped_normal">
    <walk from="D1D0" to="D1C1"/>
  </person>
  <person id="ped_122" depart="181" type="ped_normal">
    <walk from="D0C0" to="C1D1"/>
  </person>
  <person id="ped_123" depart="183" type="ped_normal">
    <walk from="D2D3" to="A3B3"/>
  </person>
  <person id="ped_124" depart="421" type="ped_normal">
    <walk from="D1C1" to="A2A3"/>
  </person>
  <person id="ped_125" depart="254" type="ped_normal">
    <walk from="D1D2" to="D1C1"/>
  </person>
  <person id="ped_126" depart="718" type="ped_normal">
    <walk from="D2D1" to="C1D1"/>
  </person>
  <person id="ped_127" depart="39" type="ped_normal">
    <walk from="C1C2" to="A1A0"/>
  </person>
  <person id="ped_128" depart="204" type="ped_normal">
    <walk from="C1C0" to="B2C2"/>
  </person>
  <person id="ped_129" depart="312" type="ped_normal">
    <walk from="D3C3" to="C3B3"/>
  </person>
  <person id="ped_130" depart="24" type="ped_normal">
    <walk from="B2C2" to="B2C2"/>
  </person>
  <person id="ped_131" depart="408" type="ped_normal">
    <walk from="D1D2" to="B0B1"/>
  </person>
  <person id="ped_132" depart="71" type="ped_normal">
    <walk from="A2A3" to="D2D1"/>
  </person>
  <person id="ped_133" depart="656" type="ped_normal">
    <walk from="D2D1" to="C3B3"/>
  </person>
  <person id="ped_134" depart="695" type="ped_normal">
    <walk from="B2B1" to="B3A3"/>
  </person>
  <person id="ped_135" depart="28" type="ped_normal">
    <walk from="B1C1" to="A2A3"/>
  </person>
  <person id="ped_136" depart="182" type="ped_normal">
    <walk from="A3A2" to="A2B2"/>
  </person>
  <person id="ped_137" depart="39" type="ped_normal">
    <walk from="D0D1" to="A2B2"/>
  </person>
  <person id="ped_138" depart="444" type="ped_normal">
    <walk from="C1C2" to="C2C1"/>
  </person>
  <person id="ped_139" depart="321" type="ped_normal">
    <walk from="C3B3" to="C3C2"/>
  </person>
  <person id="ped_140" depart="523" type="ped_normal">
    <walk from="B1B2" to="C2C1"/>
  </person>
  <person id="ped_141" depart="590" type="ped_normal">
    <walk from="A3A2" to="A1A0"/>
  </person>
  <person id="ped_142" depart="45" type="ped_normal">
    <walk from="B0B1" to="A2B2"/>
  </person>
  <person id="ped_143" depart="1" type="ped_normal">
    <walk from="B1A1" to="B1B2"/>
  </person>
  <person id="ped_144" depart="703" type="ped_normal">
    <walk from="B0A0" to="B1C1"/>
  </person>
  <person id="ped_145" depart="686" type="ped_normal">
    <walk from="C3C2" to="D1C1"/>
  </person>
  <person id="ped_146" depart="441" type="ped_normal">
    <walk from="B0B1" to="B3B2"/>
  </person>
  <person id="ped_147" depart="338" type="ped_normal">
    <walk from="B2A2" to="D1D2"/>
  </person>
  <person id="ped_148" depart="679" type="ped_normal">
    <walk from="D1D0" to="A1B1"/>
  </person>
  <person id="ped_149" depart="307" type="ped_normal">
    <walk from="A3A2" to="C3C2"/>
  </person>
  <person id="ped_150" depart="682" type="ped_normal">
    <walk from="B2B1" to="D2C2"/>
  </person>
  <person id="ped_151" depart="412" type="ped_normal">
    <walk from="D2D3" to="A1B1"/>
  </person>
  <person id="ped_152" depart="567" type="ped_normal">
    <walk from="A0B0" to="C3D3"/>
  </person>
  <person id="ped_153" depart="430" type="ped_normal">
    <walk from="B3C3" to="B0B1"/>
  </person>
  <person id="ped_154" depart="693" type="ped_normal">
    <walk from="D1D2" to="A1A0"/>
  </person>
  <person id="ped_155" depart="630" type="ped_normal">
    <walk from="D1C1" to="C2C3"/>
  </person>
  <person id="ped_156" depart="415" type="ped_normal">
    <walk from="C2D2" to="D2C2"/>
  </person>
  <person id="ped_157" depart="311" type="ped_normal">
    <walk from="B0C0" to="C0D0"/>
  </person>
  <person id="ped_158" depart="440" type="ped_normal">
    <walk from="C3D3" to="A2A1"/>
  </person>
  <person id="ped_159" depart="670" type="ped_normal">
    <walk from="D0D1" to="C2C1"/>
  </person>
  <person id="ped_160" depart="452" type="ped_normal">
    <walk from="A1B1" to="D3C3"/>
  </person>
  <person id="ped_161" depart="218" type="ped_normal">
    <walk from="B1B0" to="C0B0"/>
  </person>
  <person id="ped_162" depart="173" type="ped_normal">
    <walk from="B2B1" to="C1C0"/>
  </person>
  <person id="ped_163" depart="290" type="ped_normal">
    <walk from="D1D2" to="C2B2"/>
  </person>
  <person id="ped_164" depart="648" type="ped_normal">
    <walk from="B2B1" to="D1D2"/>
  </person>
  <person id="ped_165" depart="95" type="ped_normal">
    <walk from="D1D0" to="A2A3"/>
  </person>
  <person id="ped_166" depart="317" type="ped_normal">
    <walk from="D0C0" to="C0B0"/>
  </person>
  <person id="ped_167" depart="150" type="ped_normal">
    <walk from="B2C2" to="B0B1"/>
  </person>
  <person id="ped_168" depart="250" type="ped_normal">
    <walk from="A3B3" to="C1B1"/>
  </person>
  <person id="ped_169" depart="74" type="ped_normal">
    <walk from="C1C0" to="D1D0"/>
  </person>
  <person id="ped_170" depart="644" type="ped_normal">
    <walk from="D3C3" to="D2D3"/>
  </person>
  <person id="ped_171" depart="713" type="ped_normal">
    <walk from="C2D2" to="B0B1"/>
  </person>
  <person id="ped_172" depart="409" type="ped_normal">
    <walk from="A1A0" to="A1A2"/>
  </person>
  <person id="ped_173" depart="671" type="ped_normal">
    <walk from="D0C0" to="A0A1"/>
  </person>
  <person id="ped_174" depart="109" type="ped_normal">
    <walk from="A0B0" to="C0D0"/>
  </person>
  <person id="ped_175" depart="180" type="ped_normal">
    <walk from="B1B2" to="B2C2"/>
  </person>
  <person id="ped_176" depart="475" type="ped_normal">
    <walk from="A0B0" to="B0A0"/>
  </person>
  <person id="ped_177" depart="255" type="ped_normal">
    <walk from="B2B3" to="B0C0"/>
  </person>
  <person id="ped_178" depart="136" type="ped_normal">
    <walk from="A3A2" to="D3C3"/>
  </person>
  <person id="ped_179" depart="543" type="ped_normal">
    <walk from="D3C3" to="D1D2"/>
  </person>
  <person id="ped_180" depart="324" type="ped_normal">
    <walk from="B0C0" to="C2C1"/>
  </person>
  <person id="ped_181" depart="516" type="ped_normal">
    <walk from="B1B0" to="D1D0"/>
  </person>
  <person id="ped_182" depart="456" type="ped_normal">
    <walk from="B1B2" to="B0C0"/>
  </person>
  <person id="ped_183" depart="486" type="ped_normal">
    <walk from="C1D1" to="D1C1"/>
  </person>
  <person id="ped_184" depart="253" type="ped_normal">
    <walk from="B1B0" to="A2B2"/>
  </person>
  <person id="ped_185" depart="533" type="ped_normal">
    <walk from="C0C1" to="D2D1"/>
  </person>
  <person id="ped_186" depart="244" type="ped_normal">
    <walk from="A1A2" to="C0C1"/>
  </person>
  <person id="ped_187" depart="79" type="ped_normal">
    <walk from="D2D1" to="B1B0"/>
  </person>
  <person id="ped_188" depart="240" type="ped_normal">
    <walk from="B1A1" to="C3D3"/>
  </person>
  <person id="ped_189" depart="327" type="ped_normal">
    <walk from="D2D1" to="A2A3"/>
  </person>
  <person id="ped_190" depart="141" type="ped_normal">
    <walk from="B1C1" to="C2B2"/>
  </person>
  <person id="ped_191" depart="392" type="ped_normal">
    <walk from="A0A1" to="B2C2"/>
  </person>
  <person id="ped_192" depart="219" type="ped_normal">
    <walk from="A0B0" to="A0A1"/>
  </person>
  <person id="ped_193" depart="417" type="ped_normal">
    <walk from="B2A2" to="D2D3"/>
  </person>
  <person id="ped_194" depart="477" type="ped_normal">
    <walk from="A2A3" to="B1C1"/>
  </person>
  <person id="ped_195" depart="211" type="ped_normal">
    <walk from="D2D3" to="B2B3"/>
  </person>
  <person id="ped_196" depart="598" type="ped_normal">
    <walk from="D2D3" to="A1A0"/>
  </person>
  <person id="ped_197" depart="589" type="ped_normal">
    <walk from="A0B0" to="A3B3"/>
  </person>
  <person id="ped_198" depart="6" type="ped_normal">
    <walk from="A1A0" to="C1C0"/>
  </person>
  <person id="ped_199" depart="399" type="ped_normal">
    <walk from="C3B3" to="D2C2"/>
  </person>
  <person id="ped_200" depart="559" type="ped_normal">
    <walk from="D2D3" to="B1C1"/>
  </person>
  <person id="ped_201" depart="499" type="ped_normal">
    <walk from="C2C1" to="B2C2"/>
  </person>
  <person id="ped_202" depart="446" type="ped_normal">
    <walk from="B2C2" to="D2D1"/>
  </person>
  <person id="ped_203" depart="398" type="ped_normal">
    <walk from="A1A2" to="A3B3"/>
  </person>
  <person id="ped_204" depart="695" type="ped_normal">
    <walk from="A2A3" to="D1D2"/>
  </person>
  <person id="ped_205" depart="169" type="ped_normal">
    <walk from="B3A3" to="C3C2"/>
  </person>
  <person id="ped_206" depart="637" type="ped_normal">
    <walk from="D3C3" to="B3C3"/>
  </person>
  <person id="ped_207" depart="403" type="ped_normal">
    <walk from="B1C1" to="A3B3"/>
  </person>
  <person id="ped_208" depart="678" type="ped_normal">
    <walk from="D0D1" to="C2D2"/>
  </person>
  <person id="ped_209" depart="658" type="ped_normal">
    <walk from="A3B3" to="C2B2"/>
  </person>
  <person id="ped_210" depart="472" type="ped_normal">
    <walk from="B1B2" to="B3C3"/>
  </person>
  <person id="ped_211" depart="266" type="ped_normal">
    <walk from="C2C3" to="B2B3"/>
  </person>
  <person id="ped_212" depart="216" type="ped_normal">
    <walk from="A1A0" to="A1B1"/>
  </person>
  <person id="ped_213" depart="345" type="ped_normal">
    <walk from="D3C3" to="A1B1"/>
  </person>
  <person id="ped_214" depart="431" type="ped_normal">
    <walk from="A1A0" to="D2D1"/>
  </person>
  <person id="ped_215" depart="481" type="ped_normal">
    <walk from="A2B2" to="C2B2"/>
  </person>
  <person id="ped_216" depart="552" type="ped_normal">
    <walk from="A3B3" to="D1C1"/>
  </person>
  <person id="ped_217" depart="229" type="ped_normal">
    <walk from="B2B3" to="C3B3"/>
  </person>
  <person id="ped_218" depart="667" type="ped_normal">
    <walk from="D3D2" to="B2A2"/>
  </person>
  <person id="ped_219" depart="253" type="ped_normal">
    <walk from="C1B1" to="A3B3"/>
  </person>
  <person id="ped_220" depart="636" type="ped_normal">
    <walk from="B0B1" to="A3B3"/>
  </person>
  <person id="ped_221" depart="129" type="ped_normal">
    <walk from="A0A1" to="D0C0"/>
  </person>
  <person id="ped_222" depart="117" type="ped_normal">
    <walk from="C1C0" to="D1D2"/>
  </person>
  <person id="ped_223" depart="476" type="ped_normal">
    <walk from="C2D2" to="A2A1"/>
  </person>
  <person id="ped_224" depart="377" type="ped_normal">
    <walk from="A0B0" to="A2B2"/>
  </person>
  <person id="ped_225" depart="621" type="ped_normal">
    <walk from="C1D1" to="C2C1"/>
  </person>
  <person id="ped_226" depart="117" type="ped_normal">
    <walk from="D1C1" to="B1A1"/>
  </person>
  <person id="ped_227" depart="110" type="ped_normal">
    <walk from="C1D1" to="D2C2"/>
  </person>
  <person id="ped_228" depart="319" type="ped_normal">
    <walk from="D0D1" to="A3B3"/>
  </person>
  <person id="ped_229" depart="384" type="ped_normal">
    <walk from="C2D2" to="C0B0"/>
  </person>
  <person id="ped_230" depart="203" type="ped_normal">
    <walk from="B3A3" to="B1A1"/>
  </person>
  <person id="ped_231" depart="707" type="ped_normal">
    <walk from="B2A2" to="D0D1"/>
  </person>
  <person id="ped_232" depart="104" type="ped_normal">
    <walk from="C0C1" to="D0C0"/>