<configuration>
    <input>
        <net-file value="hangzhou.net.xml"/>
        <route-files value="hangzhou_normal.rou.xml"/>
        <additional-files value="latam_infrastructure.add.xml"/>
    </input>
    <time>
        <begin value="0"/>
        <end value="3600"/>
    </time>
</configuration>