<?xml version="1.0" encoding="UTF-8"?>

<!-- generated on 2026-05-23T17:15:14.658625-05:00 by Eclipse SUMO netgenerate 1.26.0
<netgenerateConfiguration xmlns:xsi="http://www.w3.org/2001/XMLSchema-instance" xsi:noNamespaceSchemaLocation="http://sumo.dlr.de/xsd/netgenerateConfiguration.xsd">

    <grid_network>
        <grid value="true"/>
        <grid.number value="4"/>
        <grid.length value="500"/>
    </grid_network>

    <output>
        <output-file value="experiments/hangzhou_robustness/scenarios/hangzhou_4x4_tls.net.xml"/>
        <plain-output-prefix value="true"/>
    </output>

    <tls_building>
        <tls.default-type value="actuated"/>
    </tls_building>

</netgenerateConfiguration>
-->

<nodes version="1.20" xmlns:xsi="http://www.w3.org/2001/XMLSchema-instance" xsi:noNamespaceSchemaLocation="http://sumo.dlr.de/xsd/nodes_file.xsd">
    <location netOffset="0.00,0.00" convBoundary="0.00,0.00,1500.00,1500.00" origBoundary="0.00,0.00,1500.00,1500.00" projParameter="!"/>

    <node id="A0" x="0.00" y="0.00" type="priority"/>
    <node id="A1" x="0.00" y="500.00" type="priority"/>
    <node id="A2" x="0.00" y="1000.00" type="priority"/>
    <node id="A3" x="0.00" y="1500.00" type="priority"/>
    <node id="B0" x="500.00" y="0.00" type="priority"/>
    <node id="B1" x="500.00" y="500.00" type="priority"/>
    <node id="B2" x="500.00" y="1000.00" type="priority"/>
    <node id="B3" x="500.00" y="1500.00" type="priority"/>
    <node id="C0" x="1000.00" y="0.00" type="priority"/>
    <node id="C1" x="1000.00" y="500.00" type="priority"/>
    <node id="C2" x="1000.00" y="1000.00" type="priority"/>
    <node id="C3" x="1000.00" y="1500.00" type="priority"/>
    <node id="D0" x="1500.00" y="0.00" type="priority"/>
    <node id="D1" x="1500.00" y="500.00" type="priority"/>
    <node id="D2" x="1500.00" y="1000.00" type="priority"/>
    <node id="D3" x="1500.00" y="1500.00" type="priority"/>
</nodes>
