<?xml version="1.0" encoding="UTF-8"?>
<additional xmlns="http://sumo.dlr.de">
  <vType id="normal" sigma="0.5" tau="1.0" speedFactor="1.0" accel="2.6" decel="4.5" color="0,0.5,1"/>
  <vType id="imprudent" sigma="0.9" tau="0.6" speedFactor="1.3" accel="3.5" decel="6.0" color="0.8,0,0.8"/>
  <trip id="veh_0" type="imprudent" depart="2619" from="A1A2" to="A0A1"/>
  <trip id="veh_1" type="imprudent" depart="3037" from="B0B1" to="B0A0"/>
  <trip id="veh_2" type="imprudent" depart="914" from="A1B1" to="C2C1"/>
  <trip id="veh_3" type="imprudent" depart="419" from="C1C2" to="C2C1"/>
  <trip id="veh_4" type="imprudent" depart="2233" from="A1A0" to="C0C1"/>
  <trip id="veh_5" type="imprudent" depart="1728" from="A0B0" to="A0A1"/>
  <trip id="veh_6" type="imprudent" depart="383" from="A2B2" to="B0A0"/>
  <trip id="veh_7" type="imprudent" depart="2069" from="C1B1" to="A0A1"/>
  <trip id="veh_8" type="imprudent" depart="2298" from="A2B2" to="C2B2"/>
  <trip id="veh_9" type="imprudent" depart="2661" from="C2B2" to="C0B0"/>
  <trip id="veh_10" type="imprudent" depart="1718" from="B0A0" to="B2A2"/>
  <trip id="veh_11" type="imprudent" depart="2413" from="B0B1" to="A0A1"/>
  <trip id="veh_12" type="imprudent" depart="3108" from="A2A1" to="C2B2"/>
  <trip id="veh_13" type="imprudent" depart="1731" from="B1A1" to="B0B1"/>
  <trip id="veh_14" type="imprudent" depart="636" from="A2B2" to="B1A1"/>
  <trip id="veh_15" type="imprudent" depart="418" from="A1A0" to="B1B2"/>
  <trip id="veh_16" type="imprudent" depart="396" from="B1B0" to="C1B1"/>
  <trip id="veh_17" type="imprudent" depart="1083" from="A0B0" to="C2C1"/>
  <trip id="veh_18" type="imprudent" depart="1881" from="C0B0" to="A1A2"/>
  <trip id="veh_19" type="imprudent" depart="1550" from="A1A0" to="C0B0"/>
  <trip id="veh_20" type="imprudent" depart="1200" from="C1C0" to="C1B1"/>
  <trip id="veh_21" type="imprudent" depart="1481" from="C0C1" to="A2B2"/>
  <trip id="veh_22" type="imprudent" depart="2885" from="A1A0" to="A0B0"/>
  <trip id="veh_23" type="imprudent" depart="2708" from="B0A0" to="B0C0"/>
  <trip id="veh_24" type="imprudent" depart="326" from="B0A0" to="A1A2"/>
  <trip id="veh_25" type="imprudent" depart="1556" from="B0B1" to="B2A2"/>
  <trip id="veh_26" type="imprudent" depart="2603" from="B1B0" to="A2A1"/>
  <trip id="veh_27" type="imprudent" depart="1516" from="B1B0" to="A2B2"/>
  <trip id="veh_28" type="imprudent" depart="2745" from="B0B1" to="C2B2"/>
  <trip id="veh_29" type="imprudent" depart="2799" from="C1C0" to="A1A0"/>
  <trip id="veh_30" type="imprudent" depart="2495" from="C1C0" to="A2A1"/>
  <trip id="veh_31" type="imprudent" depart="2187" from="C2C1" to="B0A0"/>
  <trip id="veh_32" type="imprudent" depart="669" from="B2A2" to="B1B2"/>
  <trip id="veh_33" type="imprudent" depart="1105" from="C1C0" to="C2B2"/>
  <trip id="veh_34" type="imprudent" depart="2281" from="B0A0" to="C1C2"/>
  <trip id="veh_35" type="imprudent" depart="1328" from="A0B0" to="B0A0"/>
  <trip id="veh_36" type="imprudent" depart="3366" from="A0B0" to="B1A1"/>
  <trip id="veh_37" type="imprudent" depart="1643" from="B0B1" to="A1A0"/>
  <trip id="veh_38" type="imprudent" depart="864" from="C0C1" to="C2B2"/>
  <trip id="veh_39" type="imprudent" depart="1288" from="A2B2" to="C1C0"/>
  <trip id="veh_40" type="imprudent" depart="2044" from="B1B2" to="C1C0"/>
  <trip id="veh_41" type="imprudent" depart="1879" from="A1B1" to="B0B1"/>
  <trip id="veh_42" type="imprudent" depart="571" from="B0A0" to="C2C1"/>
  <trip id="veh_43" type="imprudent" depart="2299" from="C0B0" to="B0B1"/>
  <trip id="veh_44" type="imprudent" depart="3059" from="C0C1" to="B1C1"/>
  <trip id="veh_45" type="imprudent" depart="2390" from="B1B2" to="B1B0"/>
  <trip id="veh_46" type="imprudent" depart="898" from="A1B1" to="B2C2"/>
  <trip id="veh_47" type="imprudent" depart="2021" from="A1A0" to="A0B0"/>
  <trip id="veh_48" type="imprudent" depart="449" from="A1B1" to="C1C0"/>
  <trip id="veh_49" type="imprudent" depart="655" from="C1C2" to="B1C1"/>
  <trip id="veh_50" type="imprudent" depart="2442" from="A1A0" to="B1B2"/>
  <trip id="veh_51" type="imprudent" depart="1563" from="C1B1" to="B2A2"/>
  <trip id="veh_52" type="imprudent" depart="2167" from="B0B1" to="C0B0"/>
  <trip id="veh_53" type="imprudent" depart="47" from="C1C2" to="C2C1"/>
  <trip id="veh_54" type="imprudent" depart="469" from="C1C2" to="C0B0"/>
  <trip id="veh_55" type="imprudent" depart="3075" from="B0B1" to="C1C0"/>
  <trip id="veh_56" type="imprudent" depart="1393" from="A1A2" to="B0C0"/>
  <trip id="veh_57" type="imprudent" depart="1780" from="A2A1" to="B2A2"/>
  <trip id="veh_58" type="imprudent" depart="13" from="C2C1" to="B0B1"/>
  <trip id="veh_59" type="imprudent" depart="2050" from="A2A1" to="B2C2"/>
  <trip id="veh_60" type="imprudent" depart="435" from="C1C0" to="B0C0"/>
  <trip id="veh_61" type="imprudent" depart="3447" from="C1C0" to="B2C2"/>
  <trip id="veh_62" type="imprudent" depart="2494" from="A2B2" to="A1B1"/>
  <trip id="veh_63" type="imprudent" depart="1531" from="A2A1" to="C0B0"/>
  <trip id="veh_64" type="imprudent" depart="3189" from="B2C2" to="A0A1"/>
  <trip id="veh_65" type="imprudent" depart="2453" from="B1A1" to="B2B1"/>
  <trip id="veh_66" type="imprudent" depart="79" from="A1A2" to="B1B0"/>
  <trip id="veh_67" type="imprudent" depart="3406" from="B0C0" to="B0A0"/>
  <trip id="veh_68" type="imprudent" depart="237" from="B0A0" to="C0C1"/>
  <trip id="veh_69" type="imprudent" depart="322" from="A1A0" to="C2C1"/>
  <trip id="veh_70" type="imprudent" depart="1990" from="A1A0" to="C0B0"/>
  <trip id="veh_71" type="imprudent" depart="3136" from="A1B1" to="C1C2"/>
  <trip id="veh_72" type="imprudent" depart="1946" from="C0B0" to="A2A1"/>
  <trip id="veh_73" type="imprudent" depart="1085" from="B2C2" to="C1B1"/>
  <trip id="veh_74" type="imprudent" depart="1733" from="A2B2" to="C0B0"/>
  <trip id="veh_75" type="imprudent" depart="3093" from="C2C1" to="C2B2"/>
  <trip id="veh_76" type="imprudent" depart="823" from="C2B2" to="B0C0"/>
  <trip id="veh_77" type="imprudent" depart="1634" from="C1C2" to="C1C0"/>
  <trip id="veh_78" type="imprudent" depart="1529" from="B2A2" to="B2C2"/>
  <trip id="veh_79" type="imprudent" depart="1849" from="A1A2" to="B0A0"/>
  <trip id="veh_80" type="imprudent" depart="920" from="A1A0" to="B1A1"/>
  <trip id="veh_81" type="imprudent" depart="86" from="C0C1" to="C0B0"/>
  <trip id="veh_82" type="imprudent" depart="942" from="C0C1" to="B0A0"/>
  <trip id="veh_83" type="imprudent" depart="29" from="A1A0" to="C2B2"/>
  <trip id="veh_84" type="imprudent" depart="2584" from="A0B0" to="B0A0"/>
  <trip id="veh_85" type="imprudent" depart="276" from="A0B0" to="B1A1"/>
  <trip id="veh_86" type="imprudent" depart="290" from="B2C2" to="B0A0"/>
  <trip id="veh_87" type="imprudent" depart="1140" from="C1C2" to="B2B1"/>
  <trip id="veh_88" type="imprudent" depart="877" from="C0B0" to="A1B1"/>
  <trip id="veh_89" type="imprudent" depart="2962" from="C0C1" to="B2B1"/>
  <trip id="veh_90" type="normal" depart="995" from="B2B1" to="B1C1"/>
  <trip id="veh_91" type="normal" depart="779" from="A1A2" to="C1C2"/>
  <trip id="veh_92" type="normal" depart="1765" from="B1B0" to="B1C1"/>
  <trip id="veh_93" type="normal" depart="1683" from="B2A2" to="C2C1"/>
  <trip id="veh_94" type="normal" depart="221" from="C1C2" to="C1C0"/>
  <trip id="veh_95" type="normal" depart="2646" from="A1A2" to="A0B0"/>
  <trip id="veh_96" type="normal" depart="1649" from="C2C1" to="B1A1"/>
  <trip id="veh_97" type="normal" depart="3279" from="A1A2" to="B0A0"/>
  <trip id="veh_98" type="normal" depart="784" from="A2B2" to="C0B0"/>
  <trip id="veh_99" type="normal" depart="1837" from="A1B1" to="B1C1"/>
  <trip id="veh_100" type="normal" depart="751" from="B0B1" to="B2A2"/>
  <trip id="veh_101" type="normal" depart="1023" from="A1A0" to="B2A2"/>
  <trip id="veh_102" type="normal" depart="3309" from="C0B0" to="A1A2"/>
  <trip id="veh_103" type="normal" depart="207" from="C1C0" to="C0B0"/>
  <trip id="veh_104" type="normal" depart="3424" from="A0A1" to="A1A0"/>
  <trip id="veh_105" type="normal" depart="3086" from="B0A0" to="A2A1"/>
  <trip id="veh_106" type="normal" depart="1664" from="B2B1" to="A2B2"/>
  <trip id="veh_107" type="normal" depart="1642" from="A0B0" to="A2A1"/>
  <trip id="veh_108" type="normal" depart="1552" from="A0A1" to="B1B2"/>
  <trip id="veh_109" type="normal" depart="1086" from="B2A2" to="B0C0"/>
  <trip id="veh_110" type="normal" depart="1732" from="C2B2" to="C2C1"/>
  <trip id="veh_111" type="normal" depart="3208" from="C0B0" to="C1C2"/>
  <trip id="veh_112" type="normal" depart="2942" from="B2B1" to="A1B1"/>
  <trip id="veh_113" type="normal" depart="777" from="B0C0" to="A2B2"/>
  <trip id="veh_114" type="normal" depart="239" from="C0C1" to="C2C1"/>
  <trip id="veh_115" type="normal" depart="2220" from="A0B0" to="C2C1"/>
  <trip id="veh_116" type="normal" depart="1284" from="A0B0" to="C0C1"/>
  <trip id="veh_117" type="normal" depart="1952" from="B2C2" to="A2A1"/>
  <trip id="veh_118" type="normal" depart="232" from="B2C2" to="A1A0"/>
  <trip id="veh_119" type="normal" depart="3487" from="A2A1" to="A1A0"/>
  <trip id="veh_120" type="normal" depart="2437" from="A1A0" to="C1C2"/>
  <trip id="veh_121" type="normal" depart="963" from="B1B2" to="A1A2"/>
  <trip id="veh_122" type="normal" depart="2333" from="B0A0" to="C0C1"/>
  <trip id="veh_123" type="normal" depart="2435" from="A0B0" to="C1B1"/>
  <trip id="veh_124" type="normal" depart="335" from="B1C1" to="C1C2"/>
  <trip id="veh_125" type="normal" depart="2390" from="C0C1" to="B2C2"/>
  <trip id="veh_126" type="normal" depart="1295" from="B0B1" to="A2B2"/>
  <trip id="veh_127" type="normal" depart="2743" from="C2B2" to="B1A1"/>
  <trip id="veh_128" type="normal" depart="977" from="B0B1" to="B1B2"/>
  <trip id="veh_129" type="normal" depart="536" from="C1C2" to="C1C0"/>
  <trip id="veh_130" type="normal" depart="1228" from="B2A2" to="B1A1"/>
  <trip id="veh_131" type="normal" depart="3079" from="A1A0" to="A0A1"/>
  <trip id="veh_132" type="normal" depart="1877" from="C1B1" to="C0C1"/>
  <trip id="veh_133" type="normal" depart="409" from="A1A0" to="C0B0"/>
  <trip id="veh_134" type="normal" depart="873" from="B2C2" to="B0B1"/>
  <trip id="veh_135" type="normal" depart="542" from="B1B0" to="A1A0"/>
  <trip id="veh_136" type="normal" depart="1000" from="B1B0" to="B0C0"/>
  <trip id="veh_137" type="normal" depart="646" from="B2A2" to="C0B0"/>
  <trip id="veh_138" type="normal" depart="2881" from="B0C0" to="C1B1"/>
  <trip id="veh_139" type="normal" depart="3305" from="C1C0" to="B2C2"/>
  <trip id="veh_140" type="normal" depart="32" from="C1C2" to="C0B0"/>
  <trip id="veh_141" type="normal" depart="1226" from="C1C2" to="A1A2"/>
  <trip id="veh_142" type="normal" depart="550" from="B0B1" to="A1A2"/>
  <trip id="veh_143" type="normal" depart="438" from="C2C1" to="C0B0"/>
  <trip id="veh_144" type="normal" depart="636" from="B0B1" to="B0C0"/>
  <trip id="veh_145" type="normal" depart="2477" from="A2B2" to="C2B2"/>
  <trip id="veh_146" type="normal" depart="1404" from="A2B2" to="C1C2"/>
  <trip id="veh_147" type="normal" depart="2597" from="B0B1" to="B2C2"/>
  <trip id="veh_148" type="normal" depart="2001" from="B0B1" to="A0B0"/>
  <trip id="veh_149" type="normal" depart="378" from="C1C0" to="B1C1"/>
  <trip id="veh_150" type="normal" depart="3397" from="B0B1" to="A0B0"/>
  <trip id="veh_151" type="normal" depart="14" from="B1A1" to="A1B1"/>
  <trip id="veh_152" type="normal" depart="2609" from="B0B1" to="A2A1"/>
  <trip id="veh_153" type="normal" depart="3036" from="B2A2" to="C0B0"/>
  <trip id="veh_154" type="normal" depart="2890" from="B1C1" to="C0B0"/>
  <trip id="veh_155" type="normal" depart="39" from="A1A2" to="A1A0"/>
  <trip id="veh_156" type="normal" depart="2830" from="A1B1" to="C0B0"/>
  <trip id="veh_157" type="normal" depart="147" from="B1B0" to="C0C1"/>
  <trip id="veh_158" type="normal" depart="2263" from="A1B1" to="B1C1"/>
  <trip id="veh_159" type="normal" depart="522" from="A0B0" to="B0C0"/>
  <trip id="veh_160" type="normal" depart="1493" from="A0B0" to="B1B0"/>
  <trip id="veh_161" type="normal" depart="860" from="C1C2" to="B0A0"/>
  <trip id="veh_162" type="normal" depart="2731" from="A1A2" to="B1B0"/>
  <trip id="veh_163" type="normal" depart="3195" from="C0B0" to="B1C1"/>
  <trip id="veh_164" type="normal" depart="2542" from="C2C1" to="A1B1"/>
  <trip id="veh_165" type="normal" depart="969" from="A2A1" to="B1C1"/>
  <trip id="veh_166" type="normal" depart="101" from="A2A1" to="C2C1"/>
  <trip id="veh_167" type="normal" depart="1360" from="B1C1" to="C1C2"/>
  <trip id="veh_168" type="normal" depart="3010" from="B0A0" to="B0B1"/>
  <trip id="veh_169" type="normal" depart="652" from="C2B2" to="A1A2"/>
  <trip id="veh_170" type="normal" depart="1566" from="A0B0" to="B2B1"/>
  <trip id="veh_171" type="normal" depart="911" from="A2B2" to="B2A2"/>
  <trip id="veh_172" type="normal" depart="1432" from="B0C0" to="B0A0"/>
  <trip id="veh_173" type="normal" depart="913" from="A0A1" to="C1C2"/>
  <trip id="veh_174" type="normal" depart="791" from="B1B2" to="B1A1"/>
  <trip id="veh_175" type="normal" depart="1141" from="A1A0" to="B0B1"/>
  <trip id="veh_176" type="normal" depart="1438" from="C1C0" to="B2C2"/>
  <trip id="veh_177" type="normal" depart="1637" from="C1C2" to="C0B0"/>
  <trip id="veh_178" type="normal" depart="1356" from="A0A1" to="A1A2"/>
  <trip id="veh_179" type="normal" depart="1069" from="A2A1" to="C0C1"/>
  <trip id="veh_180" type="normal" depart="1087" from="A0B0" to="A1A2"/>
  <trip id="veh_181" type="normal" depart="2443" from="B1C1" to="B1B0"/>
  <trip id="veh_182" type="normal" depart="2984" from="B1A1" to="B1C1"/>
  <trip id="veh_183" type="normal" depart="2483" from="B2C2" to="A1A2"/>
  <trip id="veh_184" type="normal" depart="1577" from="C0C1" to="A2B2"/>
  <trip id="veh_185" type="normal" depart="1043" from="A0B0" to="C2B2"/>
  <trip id="veh_186" type="normal" depart="1786" from="A0A1" to="B2C2"/>
  <trip id="veh_187" type="normal" depart="3303" from="C0B0" to="C1C2"/>
  <trip id="veh_188" type="normal" depart="2946" from="C2C1" to="C1C2"/>
  <trip id="veh_189" type="normal" depart="807" from="B1B0" to="B1C1"/>
  <trip id="veh_190" type="normal" depart="286" from="C1C2" to="B1A1"/>
  <trip id="veh_191" type="normal" depart="2552" from="B1A1" to="C1C2"/>
  <trip id="veh_192" type="normal" depart="3473" from="A1A2" to="C2C1"/>
  <trip id="veh_193" type="normal" depart="1230" from="B2C2" to="B0C0"/>
  <trip id="veh_194" type="normal" depart="2731" from="B1C1" to="B1A1"/>
  <trip id="veh_195" type="normal" depart="1648" from="C2B2" to="B0C0"/>
  <trip id="veh_196" type="normal" depart="2270" from="A1B1" to="A2B2"/>
  <trip id="veh_197" type="normal" depart="1722" from="C1C2" to="B1B2"/>
  <trip id="veh_198" type="normal" depart="2774" from="C2C1" to="A2A1"/>
  <trip id="veh_199" type="normal" depart="2521" from="C0C1" to="B0C0"/>
  <trip id="veh_200" type="normal" depart="1663" from="C0B0" to="A0A1"/>
  <trip id="veh_201" type="normal" depart="1244" from="B0C0" to="A2B2"/>
  <trip id="veh_202" type="normal" depart="1760" from="C0C1" to="C1B1"/>
  <trip id="veh_203" type="normal" depart="2681" from="B1A1" to="B2A2"/>
  <trip id="veh_204" type="normal" depart="1809" from="B2A2" to="C1C2"/>
  <trip id="veh_205" type="normal" depart="875" from="B2C2" to="B2B1"/>
  <trip id="veh_206" type="normal" depart="3251" from="C2C1" to="A2A1"/>
  <trip id="veh_207" type="normal" depart="2698" from="A1A0" to="B0C0"/>
  <trip id="veh_208" type="normal" depart="2111" from="C1C2" to="C1C0"/>
  <trip id="veh_209" type="normal" depart="2536" from="B1A1" to="A1A0"/>
  <trip id="veh_210" type="normal" depart="3352" from="B0A0" to="C1C2"/>
  <trip id="veh_211" type="normal" depart="1271" from="B0A0" to="A2B2"/>
  <trip id="veh_212" type="normal" depart="603" from="A0A1" to="A0B0"/>
  <trip id="veh_213" type="normal" depart="1002" from="B2B1" to="C1B1"/>
  <trip id="veh_214" type="normal" depart="3480" from="A1A0" to="B2A2"/>
  <trip id="veh_215" type="normal" depart="1697" from="C1C0" to="C0C1"/>
  <trip id="veh_216" type="normal" depart="796" from="C2B2" to="B1B2"/>
  <trip id="veh_217" type="normal" depart="2024" from="B1B2" to="B0A0"/>
  <trip id="veh_218" type="normal" depart="604" from="C1C0" to="C2B2"/>
  <trip id="veh_219" type="normal" depart="22" from="A1A2" to="B1C1"/>
  <trip id="veh_220" type="normal" depart="896" from="A2A1" to="C2B2"/>
  <trip id="veh_221" type="normal" depart="2121" from="B2A2" to="A0B0"/>
  <trip id="veh_222" type="normal" depart="2283" from="B0A0" to="A1A2"/>
  <trip id="veh_223" type="normal" depart="1869" from="A1B1" to="B2A2"/>
  <trip id="veh_224" type="normal" depart="2734" from="B2C2" to="C0B0"/>
  <trip id="veh_225" type="normal" depart="2438" from="B1A1" to="B2A2"/>
  <trip id="veh_226" type="normal" depart="2509" from="C2C1" to="B2C2"/>
  <trip id="veh_227" type="normal" depart="1747" from="C0B0" to="B2A2"/>
  <trip id="veh_228" type="normal" depart="651" from="C2C1" to="B2B1"/>
  <trip id="veh_229" type="normal" depart="1843" from="B0B1" to="B0A0"/>
  <trip id="veh_230" type="normal" depart="3440" from="C1C0" to="B0B1"/>
  <trip id="veh_231" type="normal" depart="3136" from="B2C2" to="B2B1"/>
  <trip id="veh_232" type="normal" depart="2567" from="B0A0" to="B0B1"/>
  <trip id="veh_233" type="normal" depart="1801" from="A1A0" to="C2B2"/>
  <trip id="veh_234" type="normal" depart="1170" from="B0A0" to="B0B1"/>
  <trip id="veh_235" type="normal" depart="1375" from="B1A1" to="C0B0"/>
  <trip id="veh_236" type="normal" depart="330" from="A1B1" to="B0A0"/>
  <trip id="veh_237" type="normal" depart="1568" from="C2B2" to="A1B1"/>
  <trip id="veh_238" type="normal" depart="2893" from="A2B2" to="A1A0"/>
  <trip id="veh_239" type="normal" depart="1699" from="B1C1" to="B1A1"/>
  <trip id="veh_240" type="normal" depart="2222" from="B2A2" to="B1C1"/>
  <trip id="veh_241" type="normal" depart="255" from="A2B2" to="B1C1"/>
  <trip id="veh_242" type="normal" depart="1595" from="C0C1" to="C2B2"/>
  <trip id="veh_243" type="normal" depart="80" from="C0C1" to="B1B2"/>
  <trip id="veh_244" type="normal" depart="1953" from="A0A1" to="B1B0"/>
  <trip id="veh_245" type="normal" depart="1223" from="B1B2" to="B1C1"/>
  <trip id="veh_246" type="normal" depart="2204" from="C2C1" to="C0B0"/>
  <trip id="veh_247" type="normal" depart="3276" from="C1B1" to="B0A0"/>
  <trip id="veh_248" type="normal" depart="1999" from="B0A0" to="B0B1"/>
  <trip id="veh_249" type="normal" depart="1785" from="B2B1" to="A0A1"/>
  <trip id="veh_250" type="normal" depart="1592" from="B1A1" to="C1C2"/>
  <trip id="veh_251" type="normal" depart="2781" from="B1B2" to="C2C1"/>
  <trip id="veh_252" type="normal" depart="676" from="B2A2" to="A1B1"/>
  <trip id="veh_253" type="normal" depart="2548" from="C0B0" to="A0A1"/>
  <trip id="veh_254" type="normal" depart="1613" from="C0C1" to="C1C2"/>
  <trip id="veh_255" type="normal" depart="111" from="A1A0" to="C1C0"/>
  <trip id="veh_256" type="normal" depart="1755" from="A1B1" to="B2A2"/>
  <trip id="veh_257" type="normal" depart="744" from="A0B0" to="B0B1"/>
  <trip id="veh_258" type="normal" depart="1552" from="B1A1" to="A2B2"/>
  <trip id="veh_259" type="normal" depart="1862" from="B1A1" to="B1B2"/>
  <trip id="veh_260" type="normal" depart="1139" from="B1C1" to="B0B1"/>
  <trip id="veh_261" type="normal" depart="3419" from="A1A0" to="B2B1"/>
  <trip id="veh_262" type="normal" depart="79" from="C2C1" to="C0B0"/>
  <trip id="veh_263" type="normal" depart="213" from="B1B0" to="B0A0"/>
  <trip id="veh_264" type="normal" depart="2662" from="A1A0" to="C1C0"/>
  <trip id="veh_265" type="normal" depart="164" from="A0A1" to="B0A0"/>
  <trip id="veh_266" type="normal" depart="816" from="A0A1" to="C1B1"/>
  <trip id="veh_267" type="normal" depart="624" from="B0A0" to="A1B1"/>
  <trip id="veh_268" type="normal" depart="1939" from="C1C2" to="A1A2"/>
  <trip id="veh_269" type="normal" depart="2310" from="A2B2" to="B2A2"/>
  <trip id="veh_270" type="normal" depart="2865" from="B0B1" to="B1B0"/>
  <trip id="veh_271" type="normal" depart="687" from="C1B1" to="C2C1"/>
  <trip id="veh_272" type="normal" depart="2942" from="A1A2" to="A2A1"/>
  <trip id="veh_273" type="normal" depart="1274" from="A1A2" to="C0C1"/>
  <trip id="veh_274" type="normal" depart="105" from="B0C0" to="C0C1"/>
  <trip id="veh_275" type="normal" depart="2774" from="B1B2" to="C2B2"/>
  <trip id="veh_276" type="normal" depart="812" from="A1A0" to="C0C1"/>
  <trip id="veh_277" type="normal" depart="2828" from="C1C0" to="B0A0"/>
  <trip id="veh_278" type="normal" depart="417" from="C2B2" to="B0C0"/>
  <trip id="veh_279" type="normal" depart="3482" from="C1C2" to="C1B1"/>
  <trip id="veh_280" type="normal" depart="3299" from="A1A2" to="C0C1"/>
  <trip id="veh_281" type="normal" depart="3205" from="A0B0" to="B1B0"/>
  <trip id="veh_282" type="normal" depart="2182" from="B1C1" to="C1C2"/>
  <trip id="veh_283" type="normal" depart="1517" from="A1A0" to="B2C2"/>
  <trip id="veh_284" type="normal" depart="2652" from="B1A1" to="A0A1"/>
  <trip id="veh_285" type="normal" depart="3479" from="B1C1" to="B2B1"/>
  <trip id="veh_286" type="normal" depart="432" from="B1C1" to="B1B0"/>
  <trip id="veh_287" type="normal" depart="2603" from="B2A2" to="C2B2"/>
  <trip id="veh_288" type="normal" depart="626" from="B1C1" to="A2A1"/>
  <trip id="veh_289" type="normal" depart="3005" from="B2C2" to="C1C0"/>
  <trip id="veh_290" type="normal" depart="1106" from="C1B1" to="C0B0"/>
  <trip id="veh_291" type="normal" depart="3172" from="B2B1" to="B2A2"/>
  <trip id="veh_292" type="normal" depart="1784" from="C2C1" to="C0C1"/>
  <trip id="veh_293" type="normal" depart="1099" from="B1A1" to="B0A0"/>
  <trip id="veh_294" type="normal" depart="3402" from="A1A0" to="B0B1"/>
  <trip id="veh_295" type="normal" depart="1846" from="B0A0" to="B2A2"/>
  <trip id="veh_296" type="normal" depart="2334" from="C1B1" to="C1C2"/>
  <trip id="veh_297" type="normal" depart="1552" from="B1A1" to="A0A1"/>
  <trip id="veh_298" type="normal" depart="2024" from="B1A1" to="A2A1"/>
  <trip id="veh_299" type="normal" depart="1997" from="A2B2" to="B1B0"/>
</additional>
