<?xml version='1.0' encoding='utf-8'?>
<additional xmlns="http://sumo.dlr.de"><vType id="normal_car" sigma="0.5" tau="1.0" speedFactor="1.0" accel="0.8" decel="0.8" color="0,0.5,1" /><vType id="imprudent_quito" sigma="1.8" tau="0.6" speedFactor="1.3" accel="1.5" decel="2.5" color="0.9,0,0.9" /><trip id="veh_0" depart="2619" type="imprudent_quito" from="C2C1" to="B0B1" /><trip id="veh_1" depart="1003" type="imprudent_quito" from="C2C1" to="A1A2" /><trip id="veh_2" depart="2771" type="normal_car" from="C0B0" to="A1A0" /><trip id="veh_3" depart="2418" type="normal_car" from="A0A1" to="A1A0" /><trip id="veh_4" depart="895" type="imprudent_quito" from="C1B1" to="A0A1" /><trip id="veh_5" depart="2298" type="imprudent_quito" from="C1C0" to="C2B2" /><trip id="veh_6" depart="2232" type="normal_car" from="B2A2" to="C0C1" /><trip id="veh_7" depart="1139" type="normal_car" from="A0A1" to="A2A1" /><trip id="veh_8" depart="2859" type="normal_car" from="B0B1" to="A1B1" /><trip id="veh_9" depart="881" type="normal_car" from="B1A1" to="A1A2" /><trip id="veh_10" depart="379" type="normal_car" from="B1B0" to="C1B1" /><trip id="veh_11" depart="1083" type="normal_car" from="C2C1" to="B2A2" /><trip id="veh_12" depart="2196" type="imprudent_quito" from="B1B2" to="A1A0" /><trip id="veh_13" depart="2261" type="imprudent_quito" from="C1C0" to="C1B1" /><trip id="veh_14" depart="1481" type="normal_car" from="C2B2" to="A1A0" /><trip id="veh_15" depart="187" type="normal_car" from="B0C0" to="A1A0" /><trip id="veh_16" depart="953" type="normal_car" from="B1B2" to="B0B1" /><trip id="veh_17" depart="1857" type="normal_car" from="B1B0" to="A2A1" /><trip id="veh_18" depart="1516" type="normal_car" from="C1C2" to="B0B1" /><trip id="veh_19" depart="2874" type="normal_car" from="C1C0" to="A1A0" /><trip id="veh_20" depart="2495" type="normal_car" from="C0B0" to="C2C1" /><trip id="veh_21" depart="1002" type="imprudent_quito" from="B1B2" to="B0B1" /><trip id="veh_22" depart="2621" type="normal_car" from="B0A0" to="C1C2" /><trip id="veh_23" depart="1328" type="normal_car" from="A0B0" to="B0A0" /><trip id="veh_24" depart="3366" type="imprudent_quito" from="B1A1" to="B1B2" /><trip id="veh_25" depart="1096" type="imprudent_quito" from="C0C1" to="C2B2" /><trip id="veh_26" depart="1288" type="imprudent_quito" from="B2B1" to="B1B2" /><trip id="veh_27" depart="2633" type="normal_car" from="B0B1" to="A1B1" /><trip id="veh_28" depart="1010" type="normal_car" from="C0B0" to="B0B1" /><trip id="veh_29" depart="3059" type="normal_car" from="C0C1" to="B1B2" /><trip id="veh_30" depart="1482" type="imprudent_quito" from="A1B1" to="B2C2" /><trip id="veh_31" depart="2021" type="imprudent_quito" from="A0B0" to="A1A2" /><trip id="veh_32" depart="626" type="normal_car" from="C1C2" to="B1C1" /><trip id="veh_33" depart="2442" type="imprudent_quito" from="B1B2" to="C1B1" /><trip id="veh_34" depart="1917" type="normal_car" from="C0B0" to="A0A1" /><trip id="veh_35" depart="2786" type="normal_car" from="C1C2" to="C0B0" /><trip id="veh_36" depart="3075" type="imprudent_quito" from="C1C0" to="B1A1" /><trip id="veh_37" depart="456" type="imprudent_quito" from="A2A1" to="B2A2" /><trip id="veh_38" depart="13" type="normal_car" from="C2C1" to="B0B1" /><trip id="veh_39" depart="2050" type="normal_car" from="B2C2" to="A1A2" /><trip id="veh_40" depart="2561" type="imprudent_quito" from="C1C0" to="B2C2" /><trip id="veh_41" depart="2494" type="imprudent_quito" from="B1B0" to="A2A1" /><trip id="veh_42" depart="2209" type="normal_car" from="B2C2" to="A0A1" /><trip id="veh_43" depart="2453" type="normal_car" from="A0A1" to="A1A2" /><trip id="veh_44" depart="1486" type="normal_car" from="B0C0" to="B0A0" /><trip id="veh_45" depart="237" type="imprudent_quito" from="C0C1" to="A1A0" /><trip id="veh_46" depart="350" type="normal_car" from="A1A0" to="C0B0" /><trip id="veh_47" depart="3136" type="imprudent_quito" from="C1C2" to="B2B1" /><trip id="veh_48" depart="2251" type="imprudent_quito" from="B2C2" to="C1B1" /><trip id="veh_49" depart="1733" type="normal_car" from="C0B0" to="C2C1" /><trip id="veh_50" depart="2825" type="imprudent_quito" from="B0C0" to="B1B2" /><trip id="veh_51" depart="2751" type="normal_car" from="B2A2" to="B2C2" /><trip id="veh_52" depart="1849" type="imprudent_quito" from="B0A0" to="A1A0" /><trip id="veh_53" depart="1384" type="imprudent_quito" from="C0B0" to="B0A0" /><trip id="veh_54" depart="2410" type="imprudent_quito" from="A1A0" to="C2B2" /><trip id="veh_55" depart="2584" type="imprudent_quito" from="A1A0" to="A0B0" /><trip id="veh_56" depart="1353" type="imprudent_quito" from="B0A0" to="B0B1" /><trip id="veh_57" depart="2740" type="normal_car" from="C0B0" to="A1B1" /><trip id="veh_58" depart="2962" type="normal_car" from="C0C1" to="B2B1" /><trip id="veh_59" depart="995" type="normal_car" from="B1C1" to="A2B2" /><trip id="veh_60" depart="386" type="imprudent_quito" from="B1C1" to="B1B0" /><trip id="veh_61" depart="1734" type="normal_car" from="C2C1" to="A0B0" /><trip id="veh_62" depart="2758" type="normal_car" from="C1C0" to="A1A2" /><trip id="veh_63" depart="248" type="normal_car" from="B1A1" to="A1A2" /><trip id="veh_64" depart="1018" type="imprudent_quito" from="C0B0" to="B2A2" /><trip id="veh_65" depart="574" type="normal_car" from="B0B1" to="B2A2" /><trip id="veh_66" depart="1023" type="normal_car" from="A1A0" to="B2A2" /><trip id="veh_67" depart="3309" type="normal_car" from="C0B0" to="A1A2" /><trip id="veh_68" depart="207" type="normal_car" from="C0B0" to="A0A1" /><trip id="veh_69" depart="382" type="normal_car" from="B0A0" to="A2A1" /><trip id="veh_70" depart="1664" type="normal_car" from="A2B2" to="B1B2" /><trip id="veh_71" depart="240" type="imprudent_quito" from="A0A1" to="B1B2" /><trip id="veh_72" depart="1086" type="normal_car" from="B2A2" to="B0C0" /><trip id="veh_73" depart="1732" type="normal_car" from="C2C1" to="C0B0" /><trip id="veh_74" depart="2711" type="normal_car" from="A1B1" to="A2B2" /><trip id="veh_75" depart="1215" type="imprudent_quito" from="A0B0" to="C0C1" /><trip id="veh_76" depart="3013" type="normal_car" from="C2C1" to="B1A1" /><trip id="veh_77" depart="234" type="imprudent_quito" from="B2B1" to="B2C2" /><trip id="veh_78" depart="3492" type="normal_car" from="A0B0" to="B2C2" /><trip id="veh_79" depart="328" type="normal_car" from="A1A0" to="C1B1" /><trip id="veh_80" depart="278" type="normal_car" from="B0A0" to="B1B2" /><trip id="veh_81" depart="491" type="normal_car" from="C0C1" to="B0A0" /><trip id="veh_82" depart="2371" type="normal_car" from="C1B1" to="A1A0" /><trip id="veh_83" depart="1717" type="normal_car" from="C0C1" to="B2C2" /><trip id="veh_84" depart="1295" type="normal_car" from="A2B2" to="C1C2" /><trip id="veh_85" depart="2933" type="normal_car" from="B0B1" to="B1B2" /><trip id="veh_86" depart="536" type="normal_car" from="B0C0" to="B2A2" /><trip id="veh_87" depart="1295" type="normal_car" from="A1A0" to="A0A1" /><trip id="veh_88" depart="1877" type="normal_car" from="C0C1" to="A1A2" /><trip id="veh_89" depart="300" type="normal_car" from="B2C2" to="B0B1" /><trip id="veh_90" depart="542" type="normal_car" from="A1A0" to="B0A0" /><trip id="veh_91" depart="1513" type="imprudent_quito" from="B2A2" to="C0B0" /><trip id="veh_92" depart="2881" type="normal_car" from="C1C0" to="B2C2" /><trip id="veh_93" depart="32" type="normal_car" from="C0B0" to="B0C0" /><trip id="veh_94" depart="2717" type="imprudent_quito" from="A1B1" to="B0B1" /><trip id="veh_95" depart="472" type="normal_car" from="C2C1" to="C0B0" /><trip id="veh_96" depart="636" type="imprudent_quito" from="C1B1" to="A2B2" /><trip id="veh_97" depart="2939" type="normal_car" from="C1C2" to="C1C0" /><trip id="veh_98" depart="3493" type="imprudent_quito" from="B2B1" to="B0B1" /><trip id="veh_99" depart="3465" type="imprudent_quito" from="C1C0" to="B1C1" /><trip id="veh_100" depart="3397" type="imprudent_quito" from="A0A1" to="B1A1" /><trip id="veh_101" depart="3158" type="imprudent_quito" from="B0B1" to="A2A1" /><trip id="veh_102" depart="3036" type="normal_car" from="C2B2" to="B1C1" /><trip id="veh_103" depart="2297" type="imprudent_quito" from="A1A0" to="C2B2" /><trip id="veh_104" depart="610" type="normal_car" from="B1B0" to="C0C1" /><trip id="veh_105" depart="2263" type="imprudent_quito" from="A1B1" to="A0B0" /><trip id="veh_106" depart="1262" type="normal_car" from="A0B0" to="B1B0" /><trip id="veh_107" depart="860" type="normal_car" from="C1C2" to="A1A2" /><trip id="veh_108" depart="1448" type="normal_car" from="B1C1" to="C1B1" /><trip id="veh_109" depart="3069" type="imprudent_quito" from="B0A0" to="A2A1" /><trip id="veh_110" depart="3276" type="normal_car" from="B1C1" to="A0A1" /><trip id="veh_111" depart="734" type="normal_car" from="B1A1" to="B1C1" /><trip id="veh_112" depart="3285" type="normal_car" from="C2C1" to="B0A0" /><trip id="veh_113" depart="1092" type="imprudent_quito" from="C2B2" to="A1A2" /><trip id="veh_114" depart="1566" type="normal_car" from="B2B1" to="B0A0" /><trip id="veh_115" depart="817" type="normal_car" from="B2A2" to="B1B0" /><trip id="veh_116" depart="1250" type="normal_car" from="B0A0" to="A0A1" /><trip id="veh_117" depart="2703" type="imprudent_quito" from="B1A1" to="B0B1" /><trip id="veh_118" depart="284" type="normal_car" from="B0B1" to="B1B0" /><trip id="veh_119" depart="2627" type="normal_car" from="C1C2" to="C0B0" /><trip id="veh_120" depart="1356" type="normal_car" from="A1A2" to="B0B1" /><trip id="veh_121" depart="731" type="normal_car" from="B0B1" to="A0B0" /><trip id="veh_122" depart="444" type="normal_car" from="B1B0" to="C2C1" /><trip id="veh_123" depart="3221" type="normal_car" from="C1B1" to="B2C2" /><trip id="veh_124" depart="473" type="normal_car" from="C0C1" to="A2B2" /><trip id="veh_125" depart="1043" type="imprudent_quito" from="B1C1" to="A0A1" /><trip id="veh_126" depart="2129" type="normal_car" from="C0B0" to="C1C2" /><trip id="veh_127" depart="2946" type="normal_car" from="C2C1" to="C1C2" /><trip id="veh_128" depart="807" type="normal_car" from="A1A0" to="C1C2" /><trip id="veh_129" depart="1352" type="normal_car" from="C1C2" to="A1A2" /><trip id="veh_130" depart="2948" type="normal_car" from="B2C2" to="B0C0" /><trip id="veh_131" depart="2731" type="normal_car" from="B1B2" to="C2B2" /><trip id="veh_132" depart="1211" type="normal_car" from="A2B2" to="B1C1" /><trip id="veh_133" depart="2723" type="normal_car" from="C1C2" to="C2C1" /><trip id="veh_134" depart="712" type="normal_car" from="B0C0" to="B1B2" /><trip id="veh_135" depart="2244" type="normal_car" from="B0C0" to="A2B2" /><trip id="veh_136" depart="1760" type="normal_car" from="C1B1" to="C1C0" /><trip id="veh_137" depart="1319" type="normal_car" from="B2A2" to="C1C2" /><trip id="veh_138" depart="875" type="normal_car" from="C2C1" to="A2A1" /><trip id="veh_139" depart="2698" type="imprudent_quito" from="B2C2" to="C1C2" /><trip id="veh_140" depart="2592" type="normal_car" from="A1A0" to="B0A0" /><trip id="veh_141" depart="2755" type="normal_car" from="A2B2" to="A1B1" /><trip id="veh_142" depart="100" type="imprudent_quito" from="B2B1" to="C1B1" /><trip id="veh_143" depart="3480" type="normal_car" from="B2A2" to="B1C1" /><trip id="veh_144" depart="2579" type="normal_car" from="C2B2" to="B1B2" /><trip id="veh_145" depart="2024" type="normal_car" from="A1B1" to="C1C0" /><trip id="veh_146" depart="2816" type="imprudent_quito" from="A1A2" to="B1C1" /><trip id="veh_147" depart="896" type="imprudent_quito" from="C2B2" to="B2C2" /><trip id="veh_148" depart="1902" type="imprudent_quito" from="B0A0" to="A1A2" /><trip id="veh_149" depart="1869" type="imprudent_quito" from="B2A2" to="C1C2" /><trip id="veh_150" depart="2175" type="normal_car" from="C1B1" to="B1A1" /><trip id="veh_151" depart="3093" type="normal_car" from="C1B1" to="C2C1" /><trip id="veh_152" depart="2067" type="normal_car" from="C0B0" to="B2A2" /><trip id="veh_153" depart="651" type="normal_car" from="B2B1" to="B2A2" /><trip id="veh_154" depart="1061" type="normal_car" from="C1C0" to="B0B1" /><trip id="veh_155" depart="3136" type="normal_car" from="B2B1" to="C1C0" /><trip id="veh_156" depart="979" type="imprudent_quito" from="A1A0" to="C2B2" /><trip id="veh_157" depart="1170" type="imprudent_quito" from="B1A1" to="C0B0" /><trip id="veh_158" depart="330" type="imprudent_quito" from="B0A0" to="B1B2" /><trip id="veh_159" depart="2842" type="imprudent_quito" from="A2B2" to="A1A0" /><trip id="veh_160" depart="1699" type="normal_car" from="C0B0" to="B2A2" /><trip id="veh_161" depart="1703" type="imprudent_quito" from="B1C1" to="B1B2" /><trip id="veh_162" depart="3153" type="normal_car" from="C2B2" to="A0A1" /><trip id="veh_163" depart="3135" type="normal_car" from="B2B1" to="A0A1" /><trip id="veh_164" depart="1440" type="imprudent_quito" from="B1B2" to="B1C1" /><trip id="veh_165" depart="2204" type="normal_car" from="C0B0" to="C1B1" /><trip id="veh_166" depart="903" type="normal_car" from="B0B1" to="B1C1" /><trip id="veh_167" depart="1989" type="imprudent_quito" from="B1A1" to="C1C2" /><trip id="veh_168" depart="2781" type="normal_car" from="C2C1" to="A2A1" /><trip id="veh_169" depart="3442" type="normal_car" from="A1B1" to="C1B1" /><trip id="veh_170" depart="2187" type="imprudent_quito" from="B1B2" to="C0C1" /><trip id="veh_171" depart="2311" type="normal_car" from="A1A0" to="C1C0" /><trip id="veh_172" depart="1755" type="imprudent_quito" from="B2A2" to="A2A1" /><trip id="veh_173" depart="205" type="imprudent_quito" from="B1A1" to="A2B2" /><trip id="veh_174" depart="1862" type="normal_car" from="B1B2" to="B0B1" /><trip id="veh_175" depart="3080" type="normal_car" from="B1C1" to="B0B1" /><trip id="veh_176" depart="3419" type="imprudent_quito" from="A0A1" to="C2C1" /><trip id="veh_177" depart="2209" type="imprudent_quito" from="B1B0" to="B0A0" /><trip id="veh_178" depart="2662" type="imprudent_quito" from="C1C0" to="A0B0" /><trip id="veh_179" depart="3089" type="imprudent_quito" from="B0A0" to="A2B2" /><trip id="veh_180" depart="3437" type="imprudent_quito" from="A1B1" to="B0A0" /><trip id="veh_181" depart="517" type="normal_car" from="A1A2" to="C0C1" /><trip id="veh_182" depart="892" type="normal_car" from="B0B1" to="B1B0" /><trip id="veh_183" depart="687" type="normal_car" from="C2C1" to="C2B2" /><trip id="veh_184" depart="469" type="normal_car" from="A2A1" to="B0C0" /><trip id="veh_185" depart="442" type="normal_car" from="B0C0" to="C0C1" /><trip id="veh_186" depart="2774" type="normal_car" from="B1B2" to="C2B2" /><trip id="veh_187" depart="812" type="imprudent_quito" from="C2B2" to="C1C0" /><trip id="veh_188" depart="994" type="imprudent_quito" from="B0C0" to="C1C2" /><trip id="veh_189" depart="2459" type="normal_car" from="C0C1" to="A0B0" /><trip id="veh_190" depart="1422" type="normal_car" from="C1C2" to="B1B0" /><trip id="veh_191" depart="282" type="normal_car" from="B1A1" to="A0A1" /><trip id="veh_192" depart="3479" type="normal_car" from="B2B1" to="A1A2" /><trip id="veh_193" depart="1775" type="normal_car" from="C1C0" to="B2A2" /><trip id="veh_194" depart="2897" type="imprudent_quito" from="A2A1" to="C2C1" /><trip id="veh_195" depart="2137" type="normal_car" from="B0B1" to="C1B1" /><trip id="veh_196" depart="3310" type="normal_car" from="B2B1" to="B2A2" /><trip id="veh_197" depart="1784" type="normal_car" from="C0C1" to="B0B1" /><trip id="veh_198" depart="1320" type="normal_car" from="A1A0" to="B0B1" /><trip id="veh_199" depart="1846" type="imprudent_quito" from="B2A2" to="C0C1" /><trip id="veh_200" depart="2499" type="normal_car" from="B1A1" to="A0A1" /><trip id="veh_201" depart="2024" type="normal_car" from="A2A1" to="B2B1" /><trip id="veh_202" depart="868" type="normal_car" from="B0B1" to="B1A1" /><trip id="veh_203" depart="1145" type="normal_car" from="C2B2" to="B0B1" /><trip id="veh_204" depart="2276" type="imprudent_quito" from="A2B2" to="A1A0" /><trip id="veh_205" depart="988" type="normal_car" from="B2B1" to="C0B0" /><trip id="veh_206" depart="3105" type="imprudent_quito" from="B2B1" to="C1C0" /><trip id="veh_207" depart="2915" type="normal_car" from="A0A1" to="A1A0" /><trip id="veh_208" depart="1205" type="imprudent_quito" from="C2B2" to="B0A0" /><trip id="veh_209" depart="1254" type="normal_car" from="B1B0" to="B2B1" /><trip id="veh_210" depart="2267" type="normal_car" from="B1C1" to="C2C1" /><trip id="veh_211" depart="2254" type="normal_car" from="C2B2" to="B2A2" /><trip id="veh_212" depart="1109" type="normal_car" from="B0A0" to="A1A2" /><trip id="veh_213" depart="2954" type="imprudent_quito" from="A1A2" to="C2C1" /><trip id="veh_214" depart="2194" type="normal_car" from="C2B2" to="A2A1" /><trip id="veh_215" depart="784" type="imprudent_quito" from="B2B1" to="B0B1" /><trip id="veh_216" depart="2967" type="normal_car" from="B2C2" to="C1B1" /><trip id="veh_217" depart="1159" type="normal_car" from="A2B2" to="B0C0" /><trip id="veh_218" depart="931" type="normal_car" from="B0C0" to="A0A1" /><trip id="veh_219" depart="2900" type="normal_car" from="B0B1" to="A0B0" /><trip id="veh_220" depart="223" type="normal_car" from="C2B2" to="A1B1" /><trip id="veh_221" depart="2612" type="normal_car" from="B2B1" to="A1A2" /><trip id="veh_222" depart="50" type="normal_car" from="B2B1" to="B2A2" /><trip id="veh_223" depart="1395" type="imprudent_quito" from="A0B0" to="B0B1" /><trip id="veh_224" depart="1956" type="imprudent_quito" from="A1A0" to="B1B2" /><trip id="veh_225" depart="2014" type="imprudent_quito" from="C1C0" to="C1C2" /><trip id="veh_226" depart="219" type="imprudent_quito" from="C0C1" to="B0C0" /><trip id="veh_227" depart="348" type="normal_car" from="A1A2" to="C0B0" /><trip id="veh_228" depart="3131" type="normal_car" from="C1B1" to="B0A0" /><trip id="veh_229" depart="3177" type="normal_car" from="B2A2" to="B0C0" /><trip id="veh_230" depart="2410" type="normal_car" from="B0C0" to="C0C1" /><trip id="veh_231" depart="2543" type="imprudent_quito" from="C2C1" to="A1A2" /><trip id="veh_232" depart="3124" type="imprudent_quito" from="A2B2" to="B0B1" /><trip id="veh_233" depart="2705" type="imprudent_quito" from="B0A0" to="A2A1" /><trip id="veh_234" depart="2260" type="imprudent_quito" from="A0A1" to="B1C1" /><trip id="veh_235" depart="1845" type="normal_car" from="B2B1" to="B0C0" /><trip id="veh_236" depart="133" type="imprudent_quito" from="C2B2" to="B0C0" /><trip id="veh_237" depart="2879" type="normal_car" from="A1A0" to="C1C2" /><trip id="veh_238" depart="956" type="normal_car" from="C1C0" to="C0C1" /><trip id="veh_239" depart="2708" type="normal_car" from="A2B2" to="B1C1" /><trip id="veh_240" depart="470" type="normal_car" from="C1C0" to="A1B1" /><trip id="veh_241" depart="1088" type="normal_car" from="A1A0" to="A0B0" /><trip id="veh_242" depart="679" type="normal_car" from="C1B1" to="C2C1" /><trip id="veh_243" depart="3376" type="normal_car" from="B0C0" to="B2A2" /><trip id="veh_244" depart="509" type="normal_car" from="B0C0" to="C2B2" /><trip id="veh_245" depart="1648" type="normal_car" from="B2C2" to="C0B0" /><trip id="veh_246" depart="2022" type="normal_car" from="C1B1" to="A0B0" /><trip id="veh_247" depart="1769" type="normal_car" from="C1B1" to="B0B1" /><trip id="veh_248" depart="105" type="imprudent_quito" from="C1C2" to="C0C1" /><trip id="veh_249" depart="2404" type="normal_car" from="C1C2" to="B0B1" /><trip id="veh_250" depart="2360" type="imprudent_quito" from="A2A1" to="B2B1" /><trip id="veh_251" depart="2125" type="normal_car" from="B0B1" to="A2A1" /><trip id="veh_252" depart="2397" type="normal_car" from="B2B1" to="A1A0" /><trip id="veh_253" depart="1925" type="normal_car" from="B1A1" to="C1C2" /><trip id="veh_254" depart="428" type="normal_car" from="B1A1" to="B1C1" /><trip id="veh_255" depart="2841" type="normal_car" from="C1C2" to="B1B2" /><trip id="veh_256" depart="3332" type="normal_car" from="A0B0" to="B2A2" /><trip id="veh_257" depart="360" type="normal_car" from="B1A1" to="A1A2" /><trip id="veh_258" depart="3164" type="normal_car" from="B2C2" to="A0A1" /><trip id="veh_259" depart="2693" type="normal_car" from="B2A2" to="B1C1" /><trip id="veh_260" depart="222" type="imprudent_quito" from="B1B0" to="C1B1" /><trip id="veh_261" depart="3098" type="normal_car" from="B2A2" to="A0B0" /><trip id="veh_262" depart="833" type="imprudent_quito" from="A1B1" to="B0C0" /><trip id="veh_263" depart="1794" type="normal_car" from="B2B1" to="A1A2" /><trip id="veh_264" depart="118" type="normal_car" from="C1B1" to="B0A0" /><trip id="veh_265" depart="2907" type="imprudent_quito" from="C0B0" to="A0A1" /><trip id="veh_266" depart="2262" type="normal_car" from="B0A0" to="A1A2" /><trip id="veh_267" depart="1890" type="normal_car" from="C1C0" to="A1B1" /><trip id="veh_268" depart="2041" type="normal_car" from="B0C0" to="B2C2" /><trip id="veh_269" depart="2889" type="imprudent_quito" from="B2B1" to="B0A0" /><trip id="veh_270" depart="1870" type="normal_car" from="B1B2" to="A2B2" /><trip id="veh_271" depart="2455" type="normal_car" from="A1B1" to="A1A0" /><trip id="veh_272" depart="1131" type="normal_car" from="B1C1" to="B1A1" /><trip id="veh_273" depart="3226" type="normal_car" from="A0A1" to="B0C0" /><trip id="veh_274" depart="2973" type="imprudent_quito" from="C0C1" to="C1C2" /><trip id="veh_275" depart="2005" type="normal_car" from="B2A2" to="C0B0" /><trip id="veh_276" depart="1983" type="normal_car" from="C0B0" to="B1B2" /><trip id="veh_277" depart="1865" type="normal_car" from="A2B2" to="C2B2" /><trip id="veh_278" depart="978" type="normal_car" from="B0A0" to="B1C1" /><trip id="veh_279" depart="178" type="normal_car" from="B2B1" to="C2B2" /><trip id="veh_280" depart="3323" type="normal_car" from="C1C2" to="C1C0" /><trip id="veh_281" depart="623" type="normal_car" from="A0B0" to="A1B1" /><trip id="veh_282" depart="2057" type="normal_car" from="B1A1" to="A1A2" /><trip id="veh_283" depart="3461" type="normal_car" from="B2C2" to="B2A2" /><trip id="veh_284" depart="62" type="normal_car" from="B1C1" to="C1C0" /><trip id="veh_285" depart="632" type="imprudent_quito" from="B0B1" to="B1A1" /><trip id="veh_286" depart="2552" type="normal_car" from="C1C0" to="A1A0" /><trip id="veh_287" depart="3488" type="normal_car" from="C1C2" to="C0B0" /><trip id="veh_288" depart="1556" type="normal_car" from="C1C0" to="C2B2" /><trip id="veh_289" depart="3110" type="normal_car" from="C0B0" to="A0B0" /><trip id="veh_290" depart="2529" type="imprudent_quito" from="C1C0" to="C1C2" /><trip id="veh_291" depart="1177" type="normal_car" from="C2C1" to="A1A0" /><trip id="veh_292" depart="1777" type="normal_car" from="C1C0" to="C2B2" /><trip id="veh_293" depart="411" type="normal_car" from="C2B2" to="B0C0" /><trip id="veh_294" depart="118" type="imprudent_quito" from="A0B0" to="B0C0" /><trip id="veh_295" depart="1468" type="normal_car" from="A1B1" to="B0A0" /><trip id="veh_296" depart="2175" type="normal_car" from="C1C2" to="A2A1" /><trip id="veh_297" depart="696" type="imprudent_quito" from="C1B1" to="B1B2" /><trip id="veh_298" depart="2538" type="normal_car" from="B2B1" to="C0C1" /><trip id="veh_299" depart="586" type="imprudent_quito" from="C1C0" to="B0B1" /></additional>