<routes xmlns="http://sumo.dlr.de">
  <trip id="trip_0" depart="51" from="C1C0" to="A1A2"/>
  <trip id="trip_1" depart="501" from="C2C1" to="B0B1"/>
  <trip id="trip_2" depart="1508" from="B0A0" to="A1B1"/>
  <trip id="trip_3" depart="1516" from="A1A2" to="C1C2"/>
  <trip id="trip_4" depart="1209" from="C0B0" to="A1A0"/>
  <trip id="trip_5" depart="61" from="B1C1" to="A0B0"/>
  <trip id="trip_6" depart="476" from="A1A0" to="A2B2"/>
  <trip id="trip_7" depart="54" from="B2C2" to="C1B1"/>
  <trip id="trip_8" depart="1466" from="C0B0" to="A2B2"/>
  <trip id="trip_9" depart="1116" from="C1C0" to="C2B2"/>
  <trip id="trip_10" depart="919" from="B1C1" to="B0A0"/>
  <trip id="trip_11" depart="1657" from="C0C1" to="B0B1"/>
  <trip id="trip_12" depart="1429" from="A0A1" to="A2A1"/>
  <trip id="trip_13" depart="569" from="B1C1" to="B1A1"/>
  <trip id="trip_14" depart="1563" from="A1B1" to="A2B2"/>
  <trip id="trip_15" depart="189" from="B1A1" to="A1A2"/>
  <trip id="trip_16" depart="735" from="B1B2" to="A1A2"/>
  <trip id="trip_17" depart="541" from="B1B0" to="C1B1"/>
  <trip id="trip_18" depart="940" from="A0B0" to="C2C1"/>
  <trip id="trip_19" depart="775" from="C0B0" to="A1A2"/>
  <trip id="trip_20" depart="600" from="A1A0" to="C0B0"/>
  <trip id="trip_21" depart="1764" from="C1C0" to="C1B1"/>
  <trip id="trip_22" depart="393" from="B1B0" to="C0C1"/>
  <trip id="trip_23" depart="93" from="C2B2" to="A1A0"/>
  <trip id="trip_24" depart="1583" from="C1C2" to="B0A0"/>
  <trip id="trip_25" depart="1751" from="B0C0" to="A1A0"/>
  <trip id="trip_26" depart="778" from="B0A0" to="A1A2"/>
  <trip id="trip_27" depart="1301" from="B0B1" to="B2A2"/>
  <trip id="trip_28" depart="758" from="B1B0" to="A2A1"/>
  <trip id="trip_29" depart="1372" from="B1B0" to="A2B2"/>
  <trip id="trip_30" depart="1399" from="B0B1" to="C2B2"/>
  <trip id="trip_31" depart="1247" from="C1C0" to="A1A0"/>
  <trip id="trip_32" depart="1093" from="C1C0" to="A2A1"/>
  <trip id="trip_33" depart="334" from="C2C1" to="B0A0"/>
  <trip id="trip_34" depart="552" from="B2A2" to="B1B2"/>
  <trip id="trip_35" depart="1140" from="C1C0" to="C2B2"/>
  <trip id="trip_36" depart="664" from="B0A0" to="C1C2"/>
  <trip id="trip_37" depart="1683" from="A0B0" to="B0A0"/>
  <trip id="trip_38" depart="821" from="A0B0" to="B1A1"/>
  <trip id="trip_39" depart="432" from="B0B1" to="A1A0"/>
  <trip id="trip_40" depart="644" from="C0C1" to="C2B2"/>
  <trip id="trip_41" depart="1022" from="A2B2" to="C1C0"/>
  <trip id="trip_42" depart="939" from="B1B2" to="C1C0"/>
  <trip id="trip_43" depart="285" from="A1B1" to="B0B1"/>
  <trip id="trip_44" depart="1149" from="B0A0" to="C2C1"/>
  <trip id="trip_45" depart="1529" from="C0B0" to="B0B1"/>
  <trip id="trip_46" depart="1195" from="C0C1" to="B1C1"/>
  <trip id="trip_47" depart="449" from="B1B2" to="B1B0"/>
  <trip id="trip_48" depart="1010" from="A1B1" to="B2C2"/>
  <trip id="trip_49" depart="1763" from="A1A0" to="A0B0"/>
  <trip id="trip_50" depart="1285" from="A1A2" to="A1B1"/>
  <trip id="trip_51" depart="864" from="A2A1" to="C1C2"/>
  <trip id="trip_52" depart="788" from="C1B1" to="A1A0"/>
  <trip id="trip_53" depart="958" from="B1B2" to="C1B1"/>
  <trip id="trip_54" depart="1133" from="B2C2" to="B0B1"/>
  <trip id="trip_55" depart="1476" from="A0A1" to="C1C2"/>
  <trip id="trip_56" depart="1099" from="A1A2" to="C1C2"/>
  <trip id="trip_57" depart="696" from="B0B1" to="C1C0"/>
  <trip id="trip_58" depart="890" from="A1A2" to="B0C0"/>
  <trip id="trip_59" depart="6" from="A2A1" to="B2A2"/>
  <trip id="trip_60" depart="1025" from="C2C1" to="B0B1"/>
  <trip id="trip_61" depart="217" from="A2A1" to="B2C2"/>
  <trip id="trip_62" depart="1723" from="C1C0" to="B0C0"/>
  <trip id="trip_63" depart="1247" from="C1C0" to="B2C2"/>
  <trip id="trip_64" depart="765" from="A2B2" to="A1B1"/>
  <trip id="trip_65" depart="1594" from="A2A1" to="C0B0"/>
  <trip id="trip_66" depart="1226" from="B2C2" to="A0A1"/>
  <trip id="trip_67" depart="39" from="B1A1" to="B2B1"/>
  <trip id="trip_68" depart="1799" from="A1A2" to="B1B0"/>
  <trip id="trip_69" depart="118" from="B0C0" to="B0A0"/>
  <trip id="trip_70" depart="161" from="B0A0" to="C0C1"/>
  <trip id="trip_71" depart="995" from="A1A0" to="C2C1"/>
  <trip id="trip_72" depart="1568" from="A1A0" to="C0B0"/>
  <trip id="trip_73" depart="973" from="A1B1" to="C1C2"/>
  <trip id="trip_74" depart="542" from="C0B0" to="A2A1"/>
  <trip id="trip_75" depart="866" from="B2C2" to="C1B1"/>
  <trip id="trip_76" depart="1546" from="A2B2" to="C0B0"/>
  <trip id="trip_77" depart="411" from="C2C1" to="C2B2"/>
  <trip id="trip_78" depart="817" from="C2B2" to="B0C0"/>
  <trip id="trip_79" depart="764" from="C1C2" to="C1C0"/>
  <trip id="trip_80" depart="924" from="B2A2" to="B2C2"/>
  <trip id="trip_81" depart="460" from="A1A2" to="B0A0"/>
  <trip id="trip_82" depart="43" from="A1A0" to="B1A1"/>
  <trip id="trip_83" depart="471" from="C0C1" to="C0B0"/>
  <trip id="trip_84" depart="14" from="C0C1" to="B0A0"/>
  <trip id="trip_85" depart="1292" from="A1A0" to="C2B2"/>
  <trip id="trip_86" depart="138" from="A0B0" to="B0A0"/>
  <trip id="trip_87" depart="145" from="A0B0" to="B1A1"/>
  <trip id="trip_88" depart="570" from="B2C2" to="B0A0"/>
  <trip id="trip_89" depart="438" from="C1C2" to="B2B1"/>
  <trip id="trip_90" depart="1481" from="C0B0" to="A1B1"/>
  <trip id="trip_91" depart="497" from="C0C1" to="B2B1"/>
  <trip id="trip_92" depart="389" from="B2B1" to="B1C1"/>
  <trip id="trip_93" depart="882" from="A1A2" to="C1C2"/>
  <trip id="trip_94" depart="841" from="B1B0" to="B1C1"/>
  <trip id="trip_95" depart="110" from="B2A2" to="C2C1"/>
  <trip id="trip_96" depart="1323" from="C1C2" to="C1C0"/>
  <trip id="trip_97" depart="824" from="A1A2" to="A0B0"/>
  <trip id="trip_98" depart="1639" from="C2C1" to="B1A1"/>
  <trip id="trip_99" depart="392" from="A1A2" to="B0A0"/>
</routes>
