<additional xmlns="http://sumo.dlr.de">
  <!-- Vehículos Normales (Azules) -->
  <vType id="normal" color="0,0.5,1" tau="1.0" sigma="0.5" speedFactor="1.0" guiShape="passenger"/>
  <!-- Vehículos Imprudentes (Violetas) -->
  <vType id="imprudent" color="0.9,0,0.9" tau="0.8" sigma="0.9" speedFactor="1.3" guiShape="sport"/>
</additional>
