<additional>
  <vType id="normal" color="0,0.5,1" sigma="0.5" speedFactor="1.0" />
  <vType id="imprudent" color="0.8,0,1" sigma="0.9" speedFactor="1.2" />
  <trip id="veh_0" type="normal" depart="3055" from="edge_5" to="edge_18"/>
  <trip id="veh_1" type="normal" depart="1858" from="edge_5" to="edge_23"/>
  <trip id="veh_2" type="imprudent" depart="494" from="edge_4" to="edge_3"/>
  <trip id="veh_3" type="normal" depart="3042" from="edge_5" to="edge_1"/>
  <trip id="veh_4" type="normal" depart="784" from="edge_23" to="edge_2"/>
  <trip id="veh_5" type="imprudent" depart="2967" from="edge_19" to="edge_4"/>
  <trip id="veh_6" type="normal" depart="1159" from="edge_20" to="edge_21"/>
  <trip id="veh_7" type="normal" depart="931" from="edge_3" to="edge_4"/>
  <trip id="veh_8" type="normal" depart="2900" from="edge_4" to="edge_0"/>
  <trip id="veh_9" type="normal" depart="223" from="edge_4" to="edge_0"/>
  <trip id="veh_10" type="normal" depart="2612" from="edge_23" to="edge_2"/>
  <trip id="veh_11" type="normal" depart="50" from="edge_19" to="edge_1"/>
  <trip id="veh_13" type="normal" depart="1034" from="edge_2" to="edge_0"/>
  <trip id="veh_14" type="normal" depart="3367" from="edge_19" to="edge_1"/>
  <trip id="veh_15" type="imprudent" depart="2363" from="edge_19" to="edge_1"/>
  <trip id="veh_16" type="normal" depart="611" from="edge_0" to="edge_2"/>
  <trip id="veh_17" type="normal" depart="1016" from="edge_4" to="edge_1"/>
  <trip id="veh_18" type="imprudent" depart="2441" from="edge_18" to="edge_21"/>
  <trip id="veh_19" type="normal" depart="1558" from="edge_3" to="edge_20"/>
  <trip id="veh_20" type="normal" depart="2410" from="edge_19" to="edge_4"/>
  <trip id="veh_21" type="normal" depart="2543" from="edge_4" to="edge_21"/>
  <trip id="veh_22" type="imprudent" depart="3124" from="edge_23" to="edge_1"/>
  <trip id="veh_23" type="imprudent" depart="2705" from="edge_3" to="edge_4"/>
  <trip id="veh_24" type="imprudent" depart="2260" from="edge_3" to="edge_2"/>
  <trip id="veh_25" type="imprudent" depart="1845" from="edge_0" to="edge_18"/>
  <trip id="veh_26" type="normal" depart="133" from="edge_19" to="edge_4"/>
  <trip id="veh_27" type="imprudent" depart="2879" from="edge_23" to="edge_4"/>
  <trip id="veh_28" type="normal" depart="956" from="edge_1" to="edge_22"/>
  <trip id="veh_29" type="normal" depart="2708" from="edge_22" to="edge_21"/>
  <trip id="veh_30" type="normal" depart="470" from="edge_3" to="edge_18"/>
  <trip id="veh_31" type="normal" depart="1088" from="edge_22" to="edge_2"/>
  <trip id="veh_32" type="normal" depart="679" from="edge_1" to="edge_0"/>
  <trip id="veh_33" type="normal" depart="3376" from="edge_21" to="edge_23"/>
  <trip id="veh_34" type="normal" depart="509" from="edge_4" to="edge_19"/>
  <trip id="veh_35" type="normal" depart="1648" from="edge_4" to="edge_23"/>
  <trip id="veh_37" type="normal" depart="163" from="edge_1" to="edge_21"/>
  <trip id="veh_38" type="normal" depart="2472" from="edge_23" to="edge_5"/>
  <trip id="veh_39" type="imprudent" depart="2761" from="edge_1" to="edge_3"/>
  <trip id="veh_41" type="normal" depart="2360" from="edge_22" to="edge_4"/>
  <trip id="veh_42" type="imprudent" depart="2125" from="edge_2" to="edge_19"/>
  <trip id="veh_43" type="normal" depart="2397" from="edge_4" to="edge_2"/>
  <trip id="veh_44" type="normal" depart="1925" from="edge_19" to="edge_1"/>
  <trip id="veh_46" type="normal" depart="1686" from="edge_2" to="edge_5"/>
  <trip id="veh_47" type="normal" depart="1640" from="edge_4" to="edge_22"/>
  <trip id="veh_48" type="normal" depart="1862" from="edge_20" to="edge_0"/>
  <trip id="veh_49" type="imprudent" depart="474" from="edge_4" to="edge_5"/>
  <trip id="veh_50" type="normal" depart="3378" from="edge_18" to="edge_20"/>
  <trip id="veh_51" type="normal" depart="1892" from="edge_22" to="edge_20"/>
  <trip id="veh_52" type="normal" depart="1481" from="edge_3" to="edge_20"/>
  <trip id="veh_53" type="normal" depart="1810" from="edge_19" to="edge_22"/>
  <trip id="veh_54" type="normal" depart="2249" from="edge_3" to="edge_4"/>
  <trip id="veh_55" type="imprudent" depart="2860" from="edge_4" to="edge_19"/>
  <trip id="veh_56" type="normal" depart="2493" from="edge_0" to="edge_22"/>
  <trip id="veh_57" type="normal" depart="1272" from="edge_23" to="edge_2"/>
  <trip id="veh_58" type="normal" depart="381" from="edge_20" to="edge_18"/>
  <trip id="veh_59" type="imprudent" depart="481" from="edge_1" to="edge_19"/>
  <trip id="veh_60" type="normal" depart="2935" from="edge_2" to="edge_19"/>
  <trip id="veh_61" type="imprudent" depart="1701" from="edge_23" to="edge_4"/>
  <trip id="veh_62" type="normal" depart="1870" from="edge_19" to="edge_3"/>
  <trip id="veh_63" type="normal" depart="2455" from="edge_18" to="edge_3"/>
  <trip id="veh_64" type="normal" depart="1131" from="edge_2" to="edge_1"/>
  <trip id="veh_65" type="normal" depart="3226" from="edge_18" to="edge_5"/>
  <trip id="veh_66" type="normal" depart="2973" from="edge_0" to="edge_4"/>
  <trip id="veh_68" type="normal" depart="1829" from="edge_19" to="edge_2"/>
  <trip id="veh_70" type="normal" depart="1865" from="edge_20" to="edge_18"/>
  <trip id="veh_71" type="normal" depart="978" from="edge_3" to="edge_23"/>
  <trip id="veh_72" type="normal" depart="178" from="edge_3" to="edge_18"/>
  <trip id="veh_73" type="normal" depart="3323" from="edge_19" to="edge_23"/>
  <trip id="veh_75" type="normal" depart="517" from="edge_19" to="edge_0"/>
  <trip id="veh_76" type="normal" depart="411" from="edge_21" to="edge_5"/>
  <trip id="veh_77" type="normal" depart="2154" from="edge_19" to="edge_1"/>
  <trip id="veh_78" type="normal" depart="590" from="edge_0" to="edge_23"/>
  <trip id="veh_79" type="normal" depart="306" from="edge_22" to="edge_2"/>
  <trip id="veh_80" type="normal" depart="2552" from="edge_4" to="edge_5"/>
  <trip id="veh_81" type="normal" depart="3488" from="edge_22" to="edge_1"/>
  <trip id="veh_82" type="normal" depart="1556" from="edge_22" to="edge_20"/>
  <trip id="veh_83" type="normal" depart="3110" from="edge_22" to="edge_23"/>
  <trip id="veh_84" type="normal" depart="2529" from="edge_20" to="edge_0"/>
  <trip id="veh_86" type="normal" depart="370" from="edge_3" to="edge_23"/>
  <trip id="veh_87" type="normal" depart="2883" from="edge_1" to="edge_22"/>
  <trip id="veh_88" type="normal" depart="2842" from="edge_19" to="edge_2"/>
  <trip id="veh_90" type="normal" depart="1468" from="edge_0" to="edge_4"/>
  <trip id="veh_91" type="normal" depart="2175" from="edge_2" to="edge_3"/>
  <trip id="veh_92" type="normal" depart="696" from="edge_22" to="edge_2"/>
  <trip id="veh_93" type="imprudent" depart="2538" from="edge_21" to="edge_18"/>
  <trip id="veh_94" type="normal" depart="586" from="edge_19" to="edge_21"/>
  <trip id="veh_95" type="imprudent" depart="1882" from="edge_22" to="edge_4"/>
  <trip id="veh_96" type="imprudent" depart="1178" from="edge_0" to="edge_19"/>
  <trip id="veh_97" type="normal" depart="1809" from="edge_2" to="edge_1"/>
  <trip id="veh_98" type="normal" depart="2617" from="edge_21" to="edge_4"/>
  <trip id="veh_99" type="normal" depart="1871" from="edge_23" to="edge_4"/>
  <trip id="veh_100" type="normal" depart="3495" from="edge_3" to="edge_18"/>
  <trip id="veh_101" type="normal" depart="2342" from="edge_3" to="edge_18"/>
  <trip id="veh_102" type="normal" depart="1209" from="edge_4" to="edge_23"/>
  <trip id="veh_103" type="imprudent" depart="1124" from="edge_22" to="edge_18"/>
  <trip id="veh_104" type="imprudent" depart="200" from="edge_22" to="edge_23"/>
  <trip id="veh_105" type="normal" depart="3411" from="edge_23" to="edge_19"/>
  <trip id="veh_106" type="normal" depart="2486" from="edge_4" to="edge_3"/>
  <trip id="veh_107" type="normal" depart="778" from="edge_3" to="edge_22"/>
  <trip id="veh_108" type="normal" depart="3143" from="edge_22" to="edge_23"/>
  <trip id="veh_109" type="normal" depart="397" from="edge_2" to="edge_22"/>
  <trip id="veh_110" type="normal" depart="1265" from="edge_22" to="edge_0"/>
  <trip id="veh_111" type="normal" depart="1494" from="edge_0" to="edge_21"/>
  <trip id="veh_112" type="normal" depart="1338" from="edge_1" to="edge_4"/>
  <trip id="veh_113" type="normal" depart="541" from="edge_2" to="edge_3"/>
  <trip id="veh_114" type="normal" depart="2055" from="edge_5" to="edge_20"/>
  <trip id="veh_115" type="normal" depart="3377" from="edge_2" to="edge_4"/>
  <trip id="veh_116" type="normal" depart="1387" from="edge_4" to="edge_23"/>
  <trip id="veh_117" type="normal" depart="576" from="edge_19" to="edge_1"/>
  <trip id="veh_118" type="normal" depart="2966" from="edge_3" to="edge_22"/>
  <trip id="veh_119" type="normal" depart="1498" from="edge_18" to="edge_20"/>
  <trip id="veh_120" type="imprudent" depart="1083" from="edge_18" to="edge_0"/>
  <trip id="veh_121" type="normal" depart="2755" from="edge_19" to="edge_5"/>
  <trip id="veh_122" type="normal" depart="1560" from="edge_4" to="edge_21"/>
  <trip id="veh_123" type="normal" depart="2764" from="edge_5" to="edge_1"/>
  <trip id="veh_124" type="imprudent" depart="2299" from="edge_0" to="edge_21"/>
  <trip id="veh_125" type="normal" depart="2652" from="edge_21" to="edge_3"/>
  <trip id="veh_126" type="imprudent" depart="1237" from="edge_19" to="edge_23"/>
  <trip id="veh_127" type="normal" depart="185" from="edge_1" to="edge_2"/>
  <trip id="veh_128" type="normal" depart="475" from="edge_4" to="edge_19"/>
  <trip id="veh_129" type="imprudent" depart="1591" from="edge_20" to="edge_2"/>
  <trip id="veh_130" type="normal" depart="2852" from="edge_22" to="edge_23"/>
  <trip id="veh_131" type="normal" depart="3040" from="edge_18" to="edge_21"/>
  <trip id="veh_132" type="normal" depart="405" from="edge_18" to="edge_22"/>
  <trip id="veh_133" type="normal" depart="1145" from="edge_21" to="edge_18"/>
  <trip id="veh_134" type="imprudent" depart="1816" from="edge_5" to="edge_3"/>
  <trip id="veh_135" type="normal" depart="406" from="edge_3" to="edge_5"/>
  <trip id="veh_136" type="normal" depart="2641" from="edge_5" to="edge_20"/>
  <trip id="veh_137" type="normal" depart="777" from="edge_18" to="edge_4"/>
  <trip id="veh_138" type="normal" depart="2714" from="edge_19" to="edge_1"/>
  <trip id="veh_139" type="imprudent" depart="87" from="edge_22" to="edge_21"/>
  <trip id="veh_140" type="imprudent" depart="515" from="edge_5" to="edge_3"/>
  <trip id="veh_141" type="normal" depart="3398" from="edge_3" to="edge_1"/>
  <trip id="veh_142" type="normal" depart="884" from="edge_3" to="edge_21"/>
  <trip id="veh_143" type="normal" depart="3171" from="edge_3" to="edge_5"/>
  <trip id="veh_144" type="imprudent" depart="1135" from="edge_21" to="edge_0"/>
  <trip id="veh_146" type="normal" depart="2707" from="edge_2" to="edge_1"/>
  <trip id="veh_147" type="normal" depart="1467" from="edge_2" to="edge_0"/>
  <trip id="veh_148" type="normal" depart="1326" from="edge_3" to="edge_21"/>
  <trip id="veh_149" type="imprudent" depart="519" from="edge_4" to="edge_0"/>
  <trip id="veh_150" type="normal" depart="3054" from="edge_20" to="edge_1"/>
  <trip id="veh_151" type="imprudent" depart="2102" from="edge_19" to="edge_5"/>
  <trip id="veh_152" type="normal" depart="907" from="edge_19" to="edge_20"/>
  <trip id="veh_153" type="normal" depart="3208" from="edge_0" to="edge_23"/>
  <trip id="veh_154" type="normal" depart="1235" from="edge_22" to="edge_20"/>
  <trip id="veh_157" type="normal" depart="1816" from="edge_19" to="edge_23"/>
  <trip id="veh_158" type="imprudent" depart="2491" from="edge_1" to="edge_5"/>
  <trip id="veh_159" type="imprudent" depart="2557" from="edge_2" to="edge_4"/>
  <trip id="veh_160" type="normal" depart="1331" from="edge_20" to="edge_23"/>
  <trip id="veh_161" type="normal" depart="1207" from="edge_21" to="edge_20"/>
  <trip id="veh_162" type="normal" depart="406" from="edge_21" to="edge_18"/>
  <trip id="veh_163" type="normal" depart="2666" from="edge_1" to="edge_22"/>
  <trip id="veh_164" type="normal" depart="880" from="edge_20" to="edge_23"/>
  <trip id="veh_165" type="normal" depart="1388" from="edge_3" to="edge_18"/>
  <trip id="veh_167" type="normal" depart="1280" from="edge_5" to="edge_18"/>
  <trip id="veh_168" type="normal" depart="2813" from="edge_5" to="edge_2"/>
  <trip id="veh_170" type="normal" depart="395" from="edge_1" to="edge_18"/>
  <trip id="veh_171" type="normal" depart="2278" from="edge_5" to="edge_2"/>
  <trip id="veh_173" type="normal" depart="1448" from="edge_1" to="edge_18"/>
  <trip id="veh_174" type="normal" depart="210" from="edge_18" to="edge_23"/>
  <trip id="veh_175" type="normal" depart="1440" from="edge_21" to="edge_4"/>
  <trip id="veh_176" type="imprudent" depart="633" from="edge_20" to="edge_3"/>
  <trip id="veh_177" type="normal" depart="1434" from="edge_3" to="edge_1"/>
  <trip id="veh_178" type="normal" depart="3123" from="edge_5" to="edge_1"/>
  <trip id="veh_179" type="imprudent" depart="3461" from="edge_3" to="edge_18"/>
  <trip id="veh_181" type="normal" depart="2494" from="edge_20" to="edge_0"/>
  <trip id="veh_182" type="normal" depart="118" from="edge_23" to="edge_4"/>
  <trip id="veh_183" type="imprudent" depart="1391" from="edge_23" to="edge_4"/>
  <trip id="veh_185" type="normal" depart="581" from="edge_18" to="edge_1"/>
  <trip id="veh_186" type="normal" depart="3056" from="edge_0" to="edge_1"/>
  <trip id="veh_188" type="normal" depart="1276" from="edge_2" to="edge_5"/>
  <trip id="veh_190" type="imprudent" depart="644" from="edge_0" to="edge_2"/>
  <trip id="veh_191" type="normal" depart="334" from="edge_0" to="edge_22"/>
  <trip id="veh_192" type="imprudent" depart="1989" from="edge_22" to="edge_18"/>
  <trip id="veh_193" type="normal" depart="882" from="edge_18" to="edge_4"/>
  <trip id="veh_194" type="normal" depart="1760" from="edge_1" to="edge_5"/>
  <trip id="veh_196" type="normal" depart="1263" from="edge_20" to="edge_22"/>
  <trip id="veh_197" type="imprudent" depart="224" from="edge_18" to="edge_21"/>
  <trip id="veh_198" type="imprudent" depart="3143" from="edge_4" to="edge_3"/>
  <trip id="veh_200" type="normal" depart="3059" from="edge_0" to="edge_19"/>
  <trip id="veh_201" type="normal" depart="2181" from="edge_2" to="edge_18"/>
  <trip id="veh_203" type="normal" depart="1626" from="edge_5" to="edge_1"/>
  <trip id="veh_204" type="normal" depart="76" from="edge_0" to="edge_18"/>
  <trip id="veh_205" type="normal" depart="2358" from="edge_1" to="edge_5"/>
  <trip id="veh_206" type="normal" depart="2622" from="edge_18" to="edge_23"/>
  <trip id="veh_207" type="normal" depart="85" from="edge_1" to="edge_18"/>
  <trip id="veh_208" type="normal" depart="1884" from="edge_2" to="edge_21"/>
  <trip id="veh_209" type="normal" depart="1788" from="edge_5" to="edge_1"/>
  <trip id="veh_210" type="normal" depart="2412" from="edge_3" to="edge_18"/>
  <trip id="veh_211" type="normal" depart="1270" from="edge_1" to="edge_18"/>
  <trip id="veh_212" type="normal" depart="3191" from="edge_3" to="edge_5"/>
  <trip id="veh_213" type="imprudent" depart="467" from="edge_20" to="edge_22"/>
  <trip id="veh_214" type="normal" depart="1438" from="edge_3" to="edge_5"/>
  <trip id="veh_215" type="normal" depart="967" from="edge_22" to="edge_2"/>
  <trip id="veh_216" type="imprudent" depart="710" from="edge_4" to="edge_3"/>
  <trip id="veh_217" type="normal" depart="725" from="edge_22" to="edge_1"/>
  <trip id="veh_218" type="normal" depart="1900" from="edge_22" to="edge_19"/>
  <trip id="veh_219" type="normal" depart="2789" from="edge_21" to="edge_19"/>
  <trip id="veh_220" type="normal" depart="2602" from="edge_21" to="edge_22"/>
  <trip id="veh_221" type="normal" depart="1294" from="edge_5" to="edge_22"/>
  <trip id="veh_222" type="imprudent" depart="1811" from="edge_1" to="edge_19"/>
  <trip id="veh_223" type="normal" depart="230" from="edge_4" to="edge_21"/>
  <trip id="veh_224" type="normal" depart="1891" from="edge_1" to="edge_4"/>
  <trip id="veh_225" type="normal" depart="3406" from="edge_0" to="edge_5"/>
  <trip id="veh_226" type="imprudent" depart="2519" from="edge_22" to="edge_1"/>
  <trip id="veh_227" type="normal" depart="2377" from="edge_18" to="edge_19"/>
  <trip id="veh_228" type="normal" depart="1842" from="edge_23" to="edge_0"/>
  <trip id="veh_229" type="normal" depart="771" from="edge_21" to="edge_22"/>
  <trip id="veh_230" type="normal" depart="617" from="edge_19" to="edge_20"/>
  <trip id="veh_231" type="normal" depart="3321" from="edge_19" to="edge_1"/>
  <trip id="veh_232" type="normal" depart="345" from="edge_5" to="edge_23"/>
  <trip id="veh_233" type="normal" depart="1014" from="edge_2" to="edge_0"/>
  <trip id="veh_234" type="normal" depart="2141" from="edge_19" to="edge_20"/>
  <trip id="veh_237" type="normal" depart="214" from="edge_22" to="edge_21"/>
  <trip id="veh_238" type="normal" depart="269" from="edge_22" to="edge_5"/>
  <trip id="veh_239" type="normal" depart="1583" from="edge_20" to="edge_22"/>
  <trip id="veh_240" type="imprudent" depart="2468" from="edge_23" to="edge_22"/>
  <trip id="veh_241" type="normal" depart="2386" from="edge_5" to="edge_1"/>
  <trip id="veh_242" type="normal" depart="2687" from="edge_5" to="edge_4"/>
  <trip id="veh_243" type="normal" depart="2437" from="edge_18" to="edge_2"/>
  <trip id="veh_244" type="normal" depart="2289" from="edge_1" to="edge_4"/>
  <trip id="veh_245" type="normal" depart="2744" from="edge_5" to="edge_2"/>
  <trip id="veh_246" type="normal" depart="2156" from="edge_23" to="edge_22"/>
  <trip id="veh_247" type="imprudent" depart="2082" from="edge_22" to="edge_18"/>
  <trip id="veh_248" type="normal" depart="738" from="edge_5" to="edge_4"/>
  <trip id="veh_249" type="normal" depart="786" from="edge_5" to="edge_19"/>
  <trip id="veh_251" type="imprudent" depart="3157" from="edge_1" to="edge_20"/>
  <trip id="veh_252" type="normal" depart="154" from="edge_23" to="edge_20"/>
  <trip id="veh_253" type="normal" depart="2446" from="edge_21" to="edge_2"/>
  <trip id="veh_255" type="normal" depart="2953" from="edge_21" to="edge_2"/>
  <trip id="veh_256" type="normal" depart="2770" from="edge_18" to="edge_5"/>
  <trip id="veh_257" type="normal" depart="1167" from="edge_19" to="edge_21"/>
  <trip id="veh_258" type="normal" depart="2187" from="edge_19" to="edge_3"/>
  <trip id="veh_259" type="imprudent" depart="1506" from="edge_19" to="edge_3"/>
  <trip id="veh_260" type="normal" depart="1891" from="edge_21" to="edge_19"/>
  <trip id="veh_261" type="normal" depart="2160" from="edge_18" to="edge_20"/>
  <trip id="veh_262" type="normal" depart="3281" from="edge_2" to="edge_3"/>
  <trip id="veh_263" type="normal" depart="2626" from="edge_4" to="edge_0"/>
  <trip id="veh_264" type="normal" depart="420" from="edge_5" to="edge_20"/>
  <trip id="veh_265" type="normal" depart="1167" from="edge_20" to="edge_1"/>
  <trip id="veh_266" type="imprudent" depart="1840" from="edge_2" to="edge_4"/>
  <trip id="veh_267" type="normal" depart="375" from="edge_2" to="edge_18"/>
  <trip id="veh_268" type="normal" depart="1431" from="edge_3" to="edge_19"/>
  <trip id="veh_269" type="normal" depart="1623" from="edge_18" to="edge_0"/>
  <trip id="veh_270" type="normal" depart="334" from="edge_3" to="edge_18"/>
  <trip id="veh_271" type="normal" depart="405" from="edge_0" to="edge_5"/>
  <trip id="veh_272" type="normal" depart="3241" from="edge_22" to="edge_5"/>
  <trip id="veh_273" type="imprudent" depart="3398" from="edge_0" to="edge_4"/>
  <trip id="veh_274" type="normal" depart="1921" from="edge_2" to="edge_23"/>
  <trip id="veh_275" type="normal" depart="77" from="edge_0" to="edge_1"/>
  <trip id="veh_276" type="imprudent" depart="2978" from="edge_2" to="edge_20"/>
  <trip id="veh_277" type="normal" depart="3179" from="edge_18" to="edge_1"/>
  <trip id="veh_278" type="imprudent" depart="195" from="edge_4" to="edge_1"/>
  <trip id="veh_279" type="imprudent" depart="1872" from="edge_22" to="edge_21"/>
  <trip id="veh_280" type="imprudent" depart="2195" from="edge_19" to="edge_21"/>
  <trip id="veh_281" type="imprudent" depart="990" from="edge_20" to="edge_21"/>
  <trip id="veh_282" type="normal" depart="6" from="edge_4" to="edge_18"/>
  <trip id="veh_283" type="normal" depart="1706" from="edge_3" to="edge_21"/>
  <trip id="veh_284" type="imprudent" depart="2144" from="edge_22" to="edge_1"/>
  <trip id="veh_285" type="normal" depart="2228" from="edge_1" to="edge_20"/>
  <trip id="veh_287" type="imprudent" depart="2603" from="edge_19" to="edge_0"/>
  <trip id="veh_288" type="normal" depart="3061" from="edge_5" to="edge_4"/>
  <trip id="veh_289" type="imprudent" depart="987" from="edge_1" to="edge_5"/>
  <trip id="veh_290" type="normal" depart="3160" from="edge_22" to="edge_1"/>
  <trip id="veh_291" type="normal" depart="181" from="edge_5" to="edge_2"/>
  <trip id="veh_292" type="normal" depart="717" from="edge_5" to="edge_22"/>
  <trip id="veh_293" type="normal" depart="2848" from="edge_22" to="edge_19"/>
  <trip id="veh_295" type="imprudent" depart="1201" from="edge_19" to="edge_0"/>
  <trip id="veh_296" type="imprudent" depart="1292" from="edge_3" to="edge_0"/>
  <trip id="veh_297" type="normal" depart="3339" from="edge_20" to="edge_18"/>
  <trip id="veh_298" type="normal" depart="3085" from="edge_4" to="edge_0"/>
  <trip id="veh_299" type="normal" depart="3198" from="edge_4" to="edge_5"/>
</additional>
