<?xml version="1.0" encoding="UTF-8"?>

<!-- generated on 2026-05-23T17:38:23.308788-05:00 by Eclipse SUMO duarouter 1.26.0
<duarouterConfiguration xmlns:xsi="http://www.w3.org/2001/XMLSchema-instance" xsi:noNamespaceSchemaLocation="http://sumo.dlr.de/xsd/duarouterConfiguration.xsd">

    <input>
        <net-file value="experiments/hangzhou_robustness/scenarios\test_grid.net.xml"/>
        <route-files value="experiments/hangzhou_robustness/scenarios\visual_test.trips.xml"/>
    </input>

    <output>
        <output-file value="experiments/hangzhou_robustness/scenarios\visual_test.routes.xml"/>
    </output>

    <time>
        <begin value="0"/>
        <end value="3600"/>
    </time>

    <report>
        <ignore-errors value="true"/>
    </report>

</duarouterConfiguration>
-->

<routes xmlns:xsi="http://www.w3.org/2001/XMLSchema-instance" xsi:noNamespaceSchemaLocation="http://sumo.dlr.de/xsd/routes_file.xsd">
</routes>
