<?xml version="1.0" encoding="UTF-8"?>
<routes xmlns="http://sumo.dlr.de">
  <trip id="trip_0" depart="102" from="edge_22" to="edge_1"/>
  <trip id="trip_1" depart="1003" from="edge_23" to="edge_4"/>
  <trip id="trip_2" depart="3016" from="edge_3" to="edge_2"/>
  <trip id="trip_3" depart="3033" from="edge_1" to="edge_22"/>
  <trip id="trip_4" depart="2418" from="edge_20" to="edge_1"/>
  <trip id="trip_5" depart="122" from="edge_18" to="edge_0"/>
  <trip id="trip_6" depart="952" from="edge_1" to="edge_3"/>
  <trip id="trip_7" depart="108" from="edge_20" to="edge_21"/>
  <trip id="trip_8" depart="2932" from="edge_20" to="edge_3"/>
  <trip id="trip_9" depart="2232" from="edge_22" to="edge_23"/>
  <trip id="trip_10" depart="1839" from="edge_18" to="edge_3"/>
  <trip id="trip_11" depart="3315" from="edge_21" to="edge_4"/>
  <trip id="trip_12" depart="2859" from="edge_0" to="edge_2"/>
  <trip id="trip_13" depart="1138" from="edge_18" to="edge_5"/>
  <trip id="trip_14" depart="3127" from="edge_2" to="edge_3"/>
  <trip id="trip_15" depart="379" from="edge_5" to="edge_1"/>
  <trip id="trip_16" depart="1470" from="edge_18" to="edge_1"/>
  <trip id="trip_17" depart="1083" from="edge_5" to="edge_21"/>
  <trip id="trip_18" depart="1881" from="edge_0" to="edge_23"/>
  <trip id="trip_19" depart="1550" from="edge_20" to="edge_1"/>
  <trip id="trip_20" depart="1200" from="edge_1" to="edge_20"/>
  <trip id="trip_21" depart="1481" from="edge_22" to="edge_21"/>
  <trip id="trip_22" depart="2885" from="edge_21" to="edge_3"/>
  <trip id="trip_23" depart="2708" from="edge_1" to="edge_0"/>
  <trip id="trip_24" depart="326" from="edge_3" to="edge_4"/>
  <trip id="trip_25" depart="1556" from="edge_3" to="edge_1"/>
  <trip id="trip_26" depart="2603" from="edge_4" to="edge_19"/>
  <trip id="trip_27" depart="1516" from="edge_5" to="edge_2"/>
  <trip id="trip_28" depart="2745" from="edge_5" to="edge_3"/>
  <trip id="trip_29" depart="2799" from="edge_4" to="edge_23"/>
  <trip id="trip_30" depart="2495" from="edge_22" to="edge_1"/>
  <trip id="trip_31" depart="2187" from="edge_22" to="edge_2"/>
  <trip id="trip_32" depart="669" from="edge_23" to="edge_3"/>
  <trip id="trip_33" depart="1105" from="edge_19" to="edge_18"/>
  <trip id="trip_34" depart="2281" from="edge_22" to="edge_23"/>
  <trip id="trip_35" depart="1328" from="edge_3" to="edge_22"/>
  <trip id="trip_36" depart="3366" from="edge_0" to="edge_3"/>
  <trip id="trip_37" depart="1643" from="edge_0" to="edge_5"/>
  <trip id="trip_38" depart="864" from="edge_4" to="edge_1"/>
  <trip id="trip_39" depart="1288" from="edge_21" to="edge_23"/>
  <trip id="trip_40" depart="2044" from="edge_3" to="edge_22"/>
  <trip id="trip_41" depart="1879" from="edge_18" to="edge_22"/>
  <trip id="trip_42" depart="571" from="edge_2" to="edge_4"/>
  <trip id="trip_43" depart="2299" from="edge_3" to="edge_23"/>
  <trip id="trip_44" depart="3059" from="edge_20" to="edge_4"/>
  <trip id="trip_45" depart="2390" from="edge_21" to="edge_18"/>
  <trip id="trip_46" depart="898" from="edge_18" to="edge_5"/>
  <trip id="trip_47" depart="2021" from="edge_2" to="edge_20"/>
  <trip id="trip_48" depart="449" from="edge_1" to="edge_0"/>
  <trip id="trip_49" depart="655" from="edge_2" to="edge_22"/>
  <trip id="trip_50" depart="2442" from="edge_22" to="edge_18"/>
  <trip id="trip_51" depart="1563" from="edge_1" to="edge_18"/>
  <trip id="trip_52" depart="2167" from="edge_21" to="edge_19"/>
  <trip id="trip_53" depart="47" from="edge_4" to="edge_20"/>
  <trip id="trip_54" depart="469" from="edge_22" to="edge_23"/>
  <trip id="trip_55" depart="3075" from="edge_22" to="edge_20"/>
  <trip id="trip_56" depart="1393" from="edge_4" to="edge_22"/>
  <trip id="trip_57" depart="1780" from="edge_1" to="edge_4"/>
  <trip id="trip_58" depart="13" from="edge_2" to="edge_19"/>
  <trip id="trip_59" depart="3120" from="edge_4" to="edge_20"/>
  <trip id="trip_60" depart="435" from="edge_2" to="edge_20"/>
  <trip id="trip_61" depart="3447" from="edge_22" to="edge_4"/>
  <trip id="trip_62" depart="2494" from="edge_22" to="edge_20"/>
  <trip id="trip_63" depart="1531" from="edge_3" to="edge_2"/>
  <trip id="trip_64" depart="3189" from="edge_2" to="edge_20"/>
  <trip id="trip_65" depart="2453" from="edge_20" to="edge_0"/>
  <trip id="trip_66" depart="79" from="edge_5" to="edge_19"/>
  <trip id="trip_67" depart="3406" from="edge_1" to="edge_5"/>
  <trip id="trip_68" depart="237" from="edge_4" to="edge_3"/>
  <trip id="trip_69" depart="322" from="edge_3" to="edge_21"/>
  <trip id="trip_70" depart="1990" from="edge_1" to="edge_23"/>
  <trip id="trip_71" depart="3136" from="edge_1" to="edge_20"/>
  <trip id="trip_72" depart="2251" from="edge_22" to="edge_19"/>
  <trip id="trip_73" depart="2161" from="edge_2" to="edge_4"/>
  <trip id="trip_74" depart="867" from="edge_21" to="edge_18"/>
  <trip id="trip_75" depart="2825" from="edge_20" to="edge_23"/>
  <trip id="trip_76" depart="1276" from="edge_3" to="edge_23"/>
  <trip id="trip_77" depart="2661" from="edge_18" to="edge_22"/>
  <trip id="trip_78" depart="2119" from="edge_5" to="edge_19"/>
  <trip id="trip_79" depart="1015" from="edge_19" to="edge_1"/>
  <trip id="trip_80" depart="1384" from="edge_3" to="edge_1"/>
  <trip id="trip_81" depart="2268" from="edge_0" to="edge_21"/>
  <trip id="trip_82" depart="902" from="edge_3" to="edge_21"/>
  <trip id="trip_83" depart="2899" from="edge_0" to="edge_1"/>
  <trip id="trip_84" depart="937" from="edge_22" to="edge_0"/>
  <trip id="trip_85" depart="1353" from="edge_1" to="edge_0"/>
  <trip id="trip_86" depart="974" from="edge_1" to="edge_20"/>
  <trip id="trip_87" depart="1988" from="edge_4" to="edge_22"/>
  <trip id="trip_88" depart="541" from="edge_3" to="edge_20"/>
  <trip id="trip_89" depart="2360" from="edge_23" to="edge_21"/>
  <trip id="trip_90" depart="3213" from="edge_19" to="edge_3"/>
  <trip id="trip_91" depart="779" from="edge_19" to="edge_18"/>
  <trip id="trip_92" depart="1451" from="edge_22" to="edge_18"/>
  <trip id="trip_93" depart="221" from="edge_19" to="edge_23"/>
  <trip id="trip_94" depart="248" from="edge_22" to="edge_1"/>
  <trip id="trip_95" depart="1389" from="edge_18" to="edge_23"/>
  <trip id="trip_96" depart="784" from="edge_1" to="edge_3"/>
  <trip id="trip_97" depart="1837" from="edge_3" to="edge_20"/>
  <trip id="trip_98" depart="751" from="edge_2" to="edge_18"/>
  <trip id="trip_99" depart="1023" from="edge_4" to="edge_19"/>
  <trip id="trip_100" depart="3309" from="edge_1" to="edge_19"/>
  <trip id="trip_101" depart="207" from="edge_20" to="edge_1"/>
  <trip id="trip_102" depart="3424" from="edge_22" to="edge_20"/>
  <trip id="trip_103" depart="3086" from="edge_0" to="edge_1"/>
  <trip id="trip_104" depart="1664" from="edge_3" to="edge_2"/>
  <trip id="trip_105" depart="240" from="edge_3" to="edge_18"/>
  <trip id="trip_106" depart="8" from="edge_2" to="edge_18"/>
  <trip id="trip_107" depart="3211" from="edge_18" to="edge_4"/>
  <trip id="trip_108" depart="1732" from="edge_19" to="edge_4"/>
  <trip id="trip_109" depart="2942" from="edge_20" to="edge_22"/>
  <trip id="trip_110" depart="777" from="edge_19" to="edge_2"/>
  <trip id="trip_111" depart="239" from="edge_4" to="edge_3"/>
  <trip id="trip_112" depart="2220" from="edge_21" to="edge_23"/>
  <trip id="trip_113" depart="1284" from="edge_0" to="edge_23"/>
  <trip id="trip_114" depart="2059" from="edge_21" to="edge_19"/>
  <trip id="trip_115" depart="232" from="edge_20" to="edge_2"/>
  <trip id="trip_116" depart="3487" from="edge_20" to="edge_1"/>
  <trip id="trip_117" depart="2437" from="edge_2" to="edge_1"/>
  <trip id="trip_118" depart="963" from="edge_1" to="edge_22"/>
  <trip id="trip_119" depart="2333" from="edge_18" to="edge_1"/>
  <trip id="trip_120" depart="2435" from="edge_3" to="edge_21"/>
  <trip id="trip_121" depart="335" from="edge_0" to="edge_21"/>
  <trip id="trip_122" depart="2390" from="edge_18" to="edge_22"/>
  <trip id="trip_123" depart="1295" from="edge_21" to="edge_20"/>
  <trip id="trip_124" depart="2743" from="edge_4" to="edge_3"/>
  <trip id="trip_125" depart="977" from="edge_23" to="edge_5"/>
  <trip id="trip_126" depart="536" from="edge_4" to="edge_18"/>
  <trip id="trip_127" depart="1295" from="edge_4" to="edge_19"/>
  <trip id="trip_128" depart="1877" from="edge_1" to="edge_0"/>
  <trip id="trip_129" depart="2072" from="edge_20" to="edge_3"/>
  <trip id="trip_130" depart="1429" from="edge_4" to="edge_2"/>
  <trip id="trip_131" depart="1513" from="edge_1" to="edge_3"/>
  <trip id="trip_132" depart="1794" from="edge_4" to="edge_2"/>
  <trip id="trip_133" depart="1239" from="edge_20" to="edge_23"/>
  <trip id="trip_134" depart="2166" from="edge_21" to="edge_22"/>
  <trip id="trip_135" depart="3346" from="edge_0" to="edge_22"/>
  <trip id="trip_136" depart="2717" from="edge_20" to="edge_4"/>
  <trip id="trip_137" depart="1083" from="edge_1" to="edge_2"/>
  <trip id="trip_138" depart="636" from="edge_23" to="edge_20"/>
  <trip id="trip_139" depart="2939" from="edge_21" to="edge_3"/>
  <trip id="trip_140" depart="2815" from="edge_5" to="edge_3"/>
  <trip id="trip_141" depart="2070" from="edge_22" to="edge_4"/>
  <trip id="trip_142" depart="3465" from="edge_19" to="edge_4"/>
  <trip id="trip_143" depart="2598" from="edge_0" to="edge_1"/>
  <trip id="trip_144" depart="180" from="edge_18" to="edge_4"/>
  <trip id="trip_145" depart="3158" from="edge_0" to="edge_5"/>
  <trip id="trip_146" depart="1072" from="edge_2" to="edge_22"/>
  <trip id="trip_147" depart="1809" from="edge_2" to="edge_23"/>
  <trip id="trip_148" depart="1751" from="edge_20" to="edge_23"/>
  <trip id="trip_149" depart="458" from="edge_20" to="edge_0"/>
  <trip id="trip_150" depart="610" from="edge_1" to="edge_23"/>
  <trip id="trip_151" depart="3418" from="edge_20" to="edge_0"/>
  <trip id="trip_152" depart="2263" from="edge_5" to="edge_21"/>
  <trip id="trip_153" depart="522" from="edge_2" to="edge_18"/>
  <trip id="trip_154" depart="1493" from="edge_0" to="edge_4"/>
  <trip id="trip_155" depart="860" from="edge_0" to="edge_5"/>
  <trip id="trip_156" depart="2731" from="edge_22" to="edge_3"/>
  <trip id="trip_157" depart="3195" from="edge_1" to="edge_5"/>
  <trip id="trip_158" depart="2542" from="edge_20" to="edge_18"/>
  <trip id="trip_159" depart="969" from="edge_23" to="edge_2"/>
  <trip id="trip_160" depart="734" from="edge_18" to="edge_0"/>
  <trip id="trip_161" depart="3204" from="edge_23" to="edge_5"/>
  <trip id="trip_162" depart="3010" from="edge_18" to="edge_22"/>
  <trip id="trip_163" depart="652" from="edge_3" to="edge_4"/>
  <trip id="trip_164" depart="1566" from="edge_23" to="edge_1"/>
  <trip id="trip_165" depart="911" from="edge_0" to="edge_19"/>
  <trip id="trip_166" depart="1432" from="edge_3" to="edge_19"/>
  <trip id="trip_167" depart="913" from="edge_4" to="edge_3"/>
  <trip id="trip_168" depart="791" from="edge_0" to="edge_22"/>
  <trip id="trip_169" depart="1141" from="edge_18" to="edge_5"/>
  <trip id="trip_170" depart="1438" from="edge_1" to="edge_4"/>
  <trip id="trip_171" depart="1637" from="edge_22" to="edge_20"/>
  <trip id="trip_172" depart="1356" from="edge_22" to="edge_20"/>
  <trip id="trip_173" depart="1069" from="edge_0" to="edge_1"/>
  <trip id="trip_174" depart="1087" from="edge_2" to="edge_21"/>
  <trip id="trip_175" depart="2443" from="edge_0" to="edge_1"/>
  <trip id="trip_176" depart="2984" from="edge_18" to="edge_5"/>
  <trip id="trip_177" depart="2483" from="edge_5" to="edge_18"/>
  <trip id="trip_178" depart="1577" from="edge_20" to="edge_1"/>
  <trip id="trip_179" depart="1043" from="edge_21" to="edge_3"/>
  <trip id="trip_180" depart="1786" from="edge_0" to="edge_23"/>
  <trip id="trip_181" depart="3303" from="edge_0" to="edge_20"/>
  <trip id="trip_182" depart="2946" from="edge_20" to="edge_22"/>
  <trip id="trip_183" depart="1491" from="edge_22" to="edge_3"/>
  <trip id="trip_184" depart="2720" from="edge_18" to="edge_1"/>
  <trip id="trip_185" depart="1285" from="edge_5" to="edge_21"/>
  <trip id="trip_186" depart="2948" from="edge_22" to="edge_1"/>
  <trip id="trip_187" depart="1266" from="edge_4" to="edge_20"/>
  <trip id="trip_188" depart="1336" from="edge_22" to="edge_18"/>
  <trip id="trip_189" depart="1211" from="edge_18" to="edge_23"/>
  <trip id="trip_190" depart="785" from="edge_20" to="edge_2"/>
  <trip id="trip_191" depart="1552" from="edge_18" to="edge_22"/>
  <trip id="trip_192" depart="712" from="edge_22" to="edge_23"/>
  <trip id="trip_193" depart="2244" from="edge_4" to="edge_18"/>
  <trip id="trip_194" depart="1175" from="edge_0" to="edge_4"/>
  <trip id="trip_195" depart="3218" from="edge_3" to="edge_18"/>
  <trip id="trip_196" depart="1904" from="edge_22" to="edge_5"/>
  <trip id="trip_197" depart="2093" from="edge_22" to="edge_3"/>
  <trip id="trip_198" depart="695" from="edge_19" to="edge_23"/>
  <trip id="trip_199" depart="1162" from="edge_22" to="edge_1"/>
  <trip id="trip_200" depart="2592" from="edge_20" to="edge_22"/>
  <trip id="trip_201" depart="382" from="edge_21" to="edge_5"/>
  <trip id="trip_202" depart="1271" from="edge_3" to="edge_22"/>
  <trip id="trip_203" depart="189" from="edge_2" to="edge_0"/>
  <trip id="trip_204" depart="2503" from="edge_3" to="edge_19"/>
  <trip id="trip_205" depart="1697" from="edge_1" to="edge_19"/>
  <trip id="trip_206" depart="796" from="edge_22" to="edge_21"/>
  <trip id="trip_207" depart="1636" from="edge_18" to="edge_19"/>
  <trip id="trip_208" depart="2687" from="edge_3" to="edge_2"/>
  <trip id="trip_209" depart="3075" from="edge_23" to="edge_0"/>
  <trip id="trip_210" depart="896" from="edge_1" to="edge_18"/>
  <trip id="trip_211" depart="2121" from="edge_2" to="edge_23"/>
  <trip id="trip_212" depart="2283" from="edge_19" to="edge_0"/>
  <trip id="trip_213" depart="1869" from="edge_3" to="edge_1"/>
  <trip id="trip_214" depart="2734" from="edge_2" to="edge_19"/>
  <trip id="trip_215" depart="3093" from="edge_21" to="edge_5"/>
  <trip id="trip_216" depart="3338" from="edge_19" to="edge_21"/>
  <trip id="trip_217" depart="1747" from="edge_23" to="edge_20"/>
  <trip id="trip_218" depart="651" from="edge_20" to="edge_19"/>
  <trip id="trip_219" depart="1843" from="edge_23" to="edge_19"/>
  <trip id="trip_220" depart="3440" from="edge_4" to="edge_3"/>
  <trip id="trip_221" depart="3136" from="edge_22" to="edge_4"/>
  <trip id="trip_222" depart="2567" from="edge_20" to="edge_19"/>
  <trip id="trip_223" depart="1801" from="edge_3" to="edge_4"/>
  <trip id="trip_224" depart="1170" from="edge_1" to="edge_23"/>
  <trip id="trip_225" depart="1375" from="edge_3" to="edge_4"/>
  <trip id="trip_226" depart="330" from="edge_5" to="edge_20"/>
  <trip id="trip_227" depart="2842" from="edge_3" to="edge_18"/>
  <trip id="trip_228" depart="876" from="edge_2" to="edge_23"/>
  <trip id="trip_229" depart="1669" from="edge_1" to="edge_18"/>
  <trip id="trip_230" depart="1908" from="edge_5" to="edge_20"/>
  <trip id="trip_231" depart="847" from="edge_18" to="edge_0"/>
  <trip id="trip_232" depart="80" from="edge_21" to="edge_23"/>
  <trip id="trip_233" depart="1953" from="edge_21" to="edge_18"/>
  <trip id="trip_234" depart="1223" from="edge_0" to="edge_5"/>
  <trip id="trip_235" depart="3009" from="edge_20" to="edge_23"/>
  <trip id="trip_236" depart="903" from="edge_20" to="edge_21"/>
  <trip id="trip_237" depart="1117" from="edge_19" to="edge_3"/>
  <trip id="trip_238" depart="118" from="edge_18" to="edge_19"/>
  <trip id="trip_239" depart="2739" from="edge_18" to="edge_5"/>
  <trip id="trip_240" depart="2966" from="edge_22" to="edge_18"/>
  <trip id="trip_241" depart="522" from="edge_2" to="edge_19"/>
  <trip id="trip_242" depart="110" from="edge_21" to="edge_20"/>
  <trip id="trip_243" depart="2311" from="edge_18" to="edge_21"/>
  <trip id="trip_244" depart="343" from="edge_22" to="edge_0"/>
  <trip id="trip_245" depart="555" from="edge_22" to="edge_18"/>
  <trip id="trip_246" depart="205" from="edge_19" to="edge_2"/>
  <trip id="trip_247" depart="1340" from="edge_4" to="edge_18"/>
  <trip id="trip_248" depart="1338" from="edge_3" to="edge_19"/>
  <trip id="trip_249" depart="1139" from="edge_5" to="edge_18"/>
  <trip id="trip_250" depart="3419" from="edge_18" to="edge_4"/>
  <trip id="trip_251" depart="79" from="edge_1" to="edge_19"/>
  <trip id="trip_252" depart="213" from="edge_23" to="edge_20"/>
  <trip id="trip_253" depart="2662" from="edge_5" to="edge_3"/>
  <trip id="trip_254" depart="164" from="edge_1" to="edge_22"/>
  <trip id="trip_255" depart="816" from="edge_0" to="edge_3"/>
  <trip id="trip_256" depart="624" from="edge_0" to="edge_21"/>
  <trip id="trip_257" depart="1939" from="edge_3" to="edge_2"/>
  <trip id="trip_258" depart="2310" from="edge_22" to="edge_1"/>
  <trip id="trip_259" depart="2865" from="edge_3" to="edge_19"/>
  <trip id="trip_260" depart="687" from="edge_4" to="edge_5"/>
  <trip id="trip_261" depart="1274" from="edge_1" to="edge_2"/>
  <trip id="trip_262" depart="105" from="edge_1" to="edge_21"/>
  <trip id="trip_263" depart="2774" from="edge_4" to="edge_21"/>
  <trip id="trip_264" depart="311" from="edge_23" to="edge_3"/>
  <trip id="trip_265" depart="3402" from="edge_21" to="edge_23"/>
  <trip id="trip_266" depart="417" from="edge_22" to="edge_3"/>
  <trip id="trip_267" depart="3482" from="edge_23" to="edge_4"/>
  <trip id="trip_268" depart="3299" from="edge_22" to="edge_21"/>
  <trip id="trip_269" depart="3205" from="edge_1" to="edge_21"/>
  <trip id="trip_270" depart="2182" from="edge_0" to="edge_5"/>
  <trip id="trip_271" depart="1517" from="edge_18" to="edge_22"/>
  <trip id="trip_272" depart="2652" from="edge_1" to="edge_20"/>
  <trip id="trip_273" depart="3479" from="edge_5" to="edge_0"/>
  <trip id="trip_274" depart="432" from="edge_18" to="edge_19"/>
  <trip id="trip_275" depart="2603" from="edge_18" to="edge_5"/>
  <trip id="trip_276" depart="626" from="edge_19" to="edge_23"/>
  <trip id="trip_277" depart="3005" from="edge_18" to="edge_2"/>
  <trip id="trip_278" depart="1106" from="edge_20" to="edge_22"/>
  <trip id="trip_279" depart="3172" from="edge_21" to="edge_20"/>
  <trip id="trip_280" depart="2426" from="edge_18" to="edge_23"/>
  <trip id="trip_281" depart="3488" from="edge_4" to="edge_5"/>
  <trip id="trip_282" depart="1142" from="edge_3" to="edge_1"/>
  <trip id="trip_283" depart="3073" from="edge_19" to="edge_3"/>
  <trip id="trip_284" depart="2499" from="edge_19" to="edge_21"/>
  <trip id="trip_285" depart="1377" from="edge_22" to="edge_18"/>
  <trip id="trip_286" depart="3485" from="edge_0" to="edge_19"/>
  <trip id="trip_287" depart="1997" from="edge_5" to="edge_2"/>
  <trip id="trip_288" depart="3267" from="edge_3" to="edge_5"/>
  <trip id="trip_289" depart="1145" from="edge_4" to="edge_5"/>
  <trip id="trip_290" depart="1131" from="edge_21" to="edge_23"/>
  <trip id="trip_291" depart="2116" from="edge_20" to="edge_0"/>
  <trip id="trip_292" depart="988" from="edge_3" to="edge_1"/>
  <trip id="trip_293" depart="2001" from="edge_23" to="edge_18"/>
  <trip id="trip_294" depart="2828" from="edge_20" to="edge_3"/>
  <trip id="trip_295" depart="2915" from="edge_19" to="edge_22"/>
  <trip id="trip_296" depart="1205" from="edge_0" to="edge_1"/>
  <trip id="trip_297" depart="2833" from="edge_3" to="edge_18"/>
  <trip id="trip_298" depart="2719" from="edge_3" to="edge_4"/>
  <trip id="trip_299" depart="1938" from="edge_21" to="edge_5"/>
</routes>
