<additional>
  <vType id="normal" color="0,0.5,1" tau="1.0" sigma="0.5" speedFactor="1.0"/>
  <vType id="imprudent" color="0.9,0,0.9" tau="0.7" sigma="0.95" speedFactor="1.4"/>
  <trip id="veh_0" type="imprudent" depart="563" from="C1C0_0" to="C1B1_0"/>
  <trip id="veh_1" type="normal" depart="1385" from="C0C1_0" to="C1C2_0"/>
  <trip id="veh_2" type="imprudent" depart="864" from="B1A1_0" to="A1A0_0"/>
  <trip id="veh_3" type="imprudent" depart="476" from="B1B2_0" to="A1B1_0"/>
  <trip id="veh_4" type="imprudent" depart="407" from="B0C0_0" to="B2C2_0"/>
  <trip id="veh_5" type="normal" depart="859" from="C0B0_0" to="C1C0_0"/>
  <trip id="veh_6" type="normal" depart="1657" from="C0C1_0" to="B1B0_0"/>
  <trip id="veh_7" type="normal" depart="696" from="A1B1_0" to="A0A1_0"/>
  <trip id="veh_8" type="imprudent" depart="1563" from="B0A0_0" to="C1C2_0"/>
  <trip id="veh_9" type="imprudent" depart="198" from="B2B1_0" to="C1B1_0"/>
  <trip id="veh_10" type="imprudent" depart="88" from="C2C1_0" to="B2C2_0"/>
  <trip id="veh_11" type="normal" depart="775" from="B1A1_0" to="B1B0_0"/>
  <trip id="veh_12" type="imprudent" depart="1287" from="B0B1_0" to="A1A0_0"/>
  <trip id="veh_13" type="normal" depart="1442" from="B2C2_0" to="C2C1_0"/>
  <trip id="veh_14" type="normal" depart="1583" from="B0B1_0" to="B1B2_0"/>
  <trip id="veh_15" type="normal" depart="1774" from="B1C1_0" to="B0B1_0"/>
  <trip id="veh_16" type="imprudent" depart="1301" from="C1B1_0" to="A2B2_0"/>
  <trip id="veh_17" type="normal" depart="429" from="C2C1_0" to="A0A1_0"/>
  <trip id="veh_18" type="normal" depart="1399" from="A0B0_0" to="B0A0_0"/>
  <trip id="veh_19" type="normal" depart="350" from="C1C0_0" to="B0B1_0"/>
  <trip id="veh_20" type="imprudent" depart="946" from="A1A0_0" to="B1A1_0"/>
  <trip id="veh_21" type="normal" depart="1310" from="A2B2_0" to="B0A0_0"/>
  <trip id="veh_22" type="imprudent" depart="664" from="C0B0_0" to="A1A0_0"/>
  <trip id="veh_23" type="normal" depart="1648" from="B1B2_0" to="C0C1_0"/>
  <trip id="veh_24" type="imprudent" depart="432" from="B2B1_0" to="A2B2_0"/>
  <trip id="veh_25" type="normal" depart="1342" from="A2A1_0" to="C0B0_0"/>
  <trip id="veh_26" type="normal" depart="1316" from="C2B2_0" to="A2B2_0"/>
  <trip id="veh_27" type="imprudent" depart="505" from="B1B0_0" to="C1C2_0"/>
  <trip id="veh_28" type="normal" depart="1529" from="B1A1_0" to="A1A0_0"/>
  <trip id="veh_29" type="normal" depart="817" from="A2A1_0" to="B2A2_0"/>
  <trip id="veh_30" type="normal" depart="283" from="C2C1_0" to="C0C1_0"/>
  <trip id="veh_31" type="imprudent" depart="96" from="B0C0_0" to="C2B2_0"/>
  <trip id="veh_32" type="normal" depart="1622" from="C1B1_0" to="C1C2_0"/>
  <trip id="veh_33" type="normal" depart="788" from="A0B0_0" to="B2A2_0"/>
  <trip id="veh_34" type="normal" depart="1083" from="A2B2_0" to="B2C2_0"/>
  <trip id="veh_35" type="normal" depart="23" from="B0A0_0" to="A1A0_0"/>
  <trip id="veh_36" type="imprudent" depart="1099" from="A0B0_0" to="B1A1_0"/>
  <trip id="veh_37" type="normal" depart="601" from="B0A0_0" to="C1C0_0"/>
  <trip id="veh_38" type="normal" depart="1478" from="B2A2_0" to="A0A1_0"/>
  <trip id="veh_39" type="normal" depart="1560" from="B1A1_0" to="B0A0_0"/>
  <trip id="veh_40" type="normal" depart="1782" from="A0A1_0" to="B0C0_0"/>
  <trip id="veh_41" type="normal" depart="1039" from="C1C0_0" to="B1C1_0"/>
  <trip id="veh_42" type="imprudent" depart="1561" from="B2C2_0" to="A1A2_0"/>
  <trip id="veh_43" type="normal" depart="1086" from="A0A1_0" to="A1A0_0"/>
  <trip id="veh_44" type="normal" depart="39" from="A1B1_0" to="B2C2_0"/>
  <trip id="veh_45" type="normal" depart="1703" from="C1B1_0" to="C2C1_0"/>
  <trip id="veh_46" type="imprudent" depart="1798" from="B1C1_0" to="C0C1_0"/>
  <trip id="veh_47" type="imprudent" depart="995" from="A2A1_0" to="B0B1_0"/>
  <trip id="veh_48" type="normal" depart="262" from="B0B1_0" to="A1A0_0"/>
  <trip id="veh_49" type="normal" depart="338" from="A0B0_0" to="C2B2_0"/>
  <trip id="veh_50" type="normal" depart="866" from="B0A0_0" to="B0C0_0"/>
  <trip id="veh_51" type="normal" depart="1412" from="A1A2_0" to="A1A0_0"/>
  <trip id="veh_52" type="normal" depart="1375" from="A1A2_0" to="C0B0_0"/>
  <trip id="veh_53" type="normal" depart="1059" from="C1C0_0" to="C2C1_0"/>
  <trip id="veh_54" type="imprudent" depart="131" from="B1B0_0" to="C1B1_0"/>
  <trip id="veh_55" type="normal" depart="471" from="B2B1_0" to="A1B1_0"/>
  <trip id="veh_56" type="imprudent" depart="1449" from="A2A1_0" to="C0C1_0"/>
  <trip id="veh_57" type="imprudent" depart="64" from="C1C0_0" to="B1B2_0"/>
  <trip id="veh_58" type="normal" depart="570" from="B2B1_0" to="B0B1_0"/>
  <trip id="veh_59" type="imprudent" depart="270" from="A0B0_0" to="C2B2_0"/>
  <trip id="veh_60" type="normal" depart="497" from="B1A1_0" to="A2A1_0"/>
  <trip id="veh_61" type="imprudent" depart="198" from="C2B2_0" to="B2A2_0"/>
  <trip id="veh_62" type="normal" depart="841" from="A0B0_0" to="B2A2_0"/>
  <trip id="veh_63" type="imprudent" depart="1338" from="B1B0_0" to="B1A1_0"/>
  <trip id="veh_64" type="imprudent" depart="1491" from="C1C0_0" to="C1B1_0"/>
  <trip id="veh_65" type="imprudent" depart="389" from="B2B1_0" to="C1B1_0"/>
  <trip id="veh_66" type="imprudent" depart="375" from="A1A0_0" to="B1B0_0"/>
  <trip id="veh_67" type="imprudent" depart="154" from="B0A0_0" to="B1B0_0"/>
  <trip id="veh_68" type="imprudent" depart="1335" from="B1B0_0" to="A1A0_0"/>
  <trip id="veh_69" type="normal" depart="1543" from="A1A0_0" to="A1B1_0"/>
  <trip id="veh_70" type="normal" depart="985" from="C0C1_0" to="A0A1_0"/>
  <trip id="veh_71" type="normal" depart="337" from="A1A2_0" to="A2B2_0"/>
  <trip id="veh_72" type="normal" depart="543" from="A2B2_0" to="A1B1_0"/>
  <trip id="veh_73" type="normal" depart="1496" from="B1B0_0" to="B1C1_0"/>
  <trip id="veh_74" type="normal" depart="317" from="A1A0_0" to="A0B0_0"/>
  <trip id="veh_75" type="imprudent" depart="119" from="A1A2_0" to="B1C1_0"/>
  <trip id="veh_76" type="normal" depart="1531" from="A2A1_0" to="B1A1_0"/>
  <trip id="veh_77" type="imprudent" depart="976" from="B2B1_0" to="B1B2_0"/>
  <trip id="veh_78" type="imprudent" depart="1040" from="B0C0_0" to="A0A1_0"/>
  <trip id="veh_79" type="imprudent" depart="139" from="B0B1_0" to="A0A1_0"/>
  <trip id="veh_80" type="normal" depart="1166" from="A0B0_0" to="C0C1_0"/>
  <trip id="veh_81" type="normal" depart="1268" from="C0C1_0" to="A2A1_0"/>
  <trip id="veh_82" type="normal" depart="1157" from="B0B1_0" to="B2A2_0"/>
  <trip id="veh_83" type="normal" depart="418" from="B0C0_0" to="B2B1_0"/>
  <trip id="veh_84" type="normal" depart="543" from="A0B0_0" to="C0B0_0"/>
  <trip id="veh_85" type="normal" depart="614" from="A2B2_0" to="C1C2_0"/>
  <trip id="veh_86" type="normal" depart="148" from="B1B0_0" to="B2B1_0"/>
  <trip id="veh_87" type="normal" depart="1153" from="A1B1_0" to="B1B0_0"/>
  <trip id="veh_88" type="normal" depart="1036" from="C1B1_0" to="B0B1_0"/>
  <trip id="veh_89" type="normal" depart="140" from="B0A0_0" to="C1C2_0"/>
  <trip id="veh_90" type="imprudent" depart="897" from="C0C1_0" to="C2C1_0"/>
  <trip id="veh_91" type="normal" depart="1652" from="A1A0_0" to="C0B0_0"/>
  <trip id="veh_92" type="imprudent" depart="1673" from="C1C0_0" to="B0C0_0"/>
  <trip id="veh_93" type="normal" depart="212" from="A1A0_0" to="B1C1_0"/>
  <trip id="veh_94" type="imprudent" depart="219" from="C1C2_0" to="B0A0_0"/>
  <trip id="veh_95" type="imprudent" depart="577" from="B1A1_0" to="A1A0_0"/>
  <trip id="veh_96" type="normal" depart="416" from="B2C2_0" to="A1A2_0"/>
  <trip id="veh_97" type="normal" depart="1035" from="A0B0_0" to="C1C0_0"/>
  <trip id="veh_98" type="normal" depart="1732" from="C2B2_0" to="B0A0_0"/>
  <trip id="veh_99" type="normal" depart="1698" from="B1B2_0" to="B0B1_0"/>
  <trip id="veh_100" type="imprudent" depart="1579" from="B0A0_0" to="B1B2_0"/>
  <trip id="veh_101" type="normal" depart="330" from="C1C2_0" to="C1C0_0"/>
  <trip id="veh_102" type="normal" depart="875" from="B1A1_0" to="B1B0_0"/>
  <trip id="veh_103" type="imprudent" depart="1415" from="A1A0_0" to="A1B1_0"/>
  <trip id="veh_104" type="imprudent" depart="756" from="C1C2_0" to="A1A0_0"/>
  <trip id="veh_105" type="imprudent" depart="261" from="A2A1_0" to="A1A0_0"/>
  <trip id="veh_106" type="normal" depart="1630" from="B1B2_0" to="B1C1_0"/>
  <trip id="veh_107" type="imprudent" depart="511" from="B1B2_0" to="C2C1_0"/>
  <trip id="veh_108" type="normal" depart="1146" from="A0B0_0" to="C1B1_0"/>
  <trip id="veh_109" type="normal" depart="484" from="B2A2_0" to="B2C2_0"/>
  <trip id="veh_110" type="imprudent" depart="1508" from="A0A1_0" to="B2A2_0"/>
  <trip id="veh_111" type="normal" depart="1769" from="B2B1_0" to="B2A2_0"/>
  <trip id="veh_112" type="imprudent" depart="1612" from="B1A1_0" to="C0C1_0"/>
  <trip id="veh_113" type="normal" depart="79" from="C0B0_0" to="C1B1_0"/>
  <trip id="veh_114" type="imprudent" depart="942" from="C2B2_0" to="C0C1_0"/>
  <trip id="veh_115" type="normal" depart="1784" from="C2C1_0" to="B1C1_0"/>
  <trip id="veh_116" type="normal" depart="816" from="C0C1_0" to="A1B1_0"/>
  <trip id="veh_117" type="normal" depart="1583" from="B2B1_0" to="B0A0_0"/>
  <trip id="veh_118" type="normal" depart="818" from="B0A0_0" to="C2C1_0"/>
  <trip id="veh_119" type="normal" depart="56" from="A0B0_0" to="A1A0_0"/>
  <trip id="veh_120" type="imprudent" depart="543" from="C1B1_0" to="B0A0_0"/>
  <trip id="veh_121" type="normal" depart="707" from="B1B2_0" to="C1B1_0"/>
  <trip id="veh_122" type="normal" depart="1047" from="B1A1_0" to="B2B1_0"/>
  <trip id="veh_123" type="normal" depart="389" from="C1B1_0" to="A2B2_0"/>
  <trip id="veh_124" type="normal" depart="3" from="B0A0_0" to="B1B2_0"/>
  <trip id="veh_125" type="normal" depart="1519" from="B0C0_0" to="A1A0_0"/>
  <trip id="veh_126" type="imprudent" depart="883" from="B1A1_0" to="A0B0_0"/>
  <trip id="veh_127" type="normal" depart="1276" from="B0B1_0" to="A0B0_0"/>
  <trip id="veh_128" type="normal" depart="1474" from="B2B1_0" to="A0B0_0"/>
  <trip id="veh_129" type="normal" depart="836" from="B1C1_0" to="B0C0_0"/>
  <trip id="veh_130" type="normal" depart="1135" from="B2B1_0" to="A2B2_0"/>
  <trip id="veh_131" type="normal" depart="776" from="C1C2_0" to="A1A2_0"/>
  <trip id="veh_132" type="normal" depart="1260" from="A0B0_0" to="B1A1_0"/>
  <trip id="veh_133" type="normal" depart="1707" from="A2A1_0" to="B1C1_0"/>
  <trip id="veh_134" type="imprudent" depart="880" from="A1B1_0" to="B1C1_0"/>
  <trip id="veh_135" type="normal" depart="952" from="A2A1_0" to="B2C2_0"/>
  <trip id="veh_136" type="imprudent" depart="969" from="B1B0_0" to="A0B0_0"/>
  <trip id="veh_137" type="normal" depart="581" from="B1A1_0" to="A0A1_0"/>
  <trip id="veh_138" type="normal" depart="686" from="B0C0_0" to="A0B0_0"/>
  <trip id="veh_139" type="normal" depart="460" from="B0B1_0" to="C0C1_0"/>
  <trip id="veh_140" type="imprudent" depart="501" from="A1A2_0" to="C1C2_0"/>
  <trip id="veh_141" type="normal" depart="149" from="C2B2_0" to="B2C2_0"/>
  <trip id="veh_142" type="normal" depart="1178" from="B1B0_0" to="B2A2_0"/>
  <trip id="veh_143" type="normal" depart="1012" from="A1A2_0" to="C0B0_0"/>
  <trip id="veh_144" type="imprudent" depart="1408" from="A2B2_0" to="C0C1_0"/>
  <trip id="veh_145" type="normal" depart="448" from="A1B1_0" to="C1B1_0"/>
  <trip id="veh_146" type="normal" depart="102" from="A0A1_0" to="C0B0_0"/>
  <trip id="veh_147" type="normal" depart="248" from="A1A0_0" to="C0C1_0"/>
  <trip id="veh_148" type="normal" depart="1367" from="B1B0_0" to="C1C2_0"/>
  <trip id="veh_149" type="normal" depart="1546" from="B0C0_0" to="A1A0_0"/>
</additional>
