<additional>
  <vType id="normal" color="0,0.5,1" tau="1.0" sigma="0.5" speedFactor="1.0"/>
  <vType id="imprudent" color="0.8,0,0.8" tau="0.6" sigma="0.9" speedFactor="1.3"/>
  <trip id="veh_0" type="normal" depart="2619" from="A1A2_0" to="A0A1_0"/>
  <trip id="veh_1" type="normal" depart="1003" from="B0A0" to="A1B1"/>
  <trip id="veh_2" type="imprudent" depart="2771" from="C2C1_0" to="C0B0"/>
  <trip id="veh_3" type="imprudent" depart="1728" from="A0B0" to="A0A1_0"/>
  <trip id="veh_4" type="imprudent" depart="952" from="B2C2" to="C1B1"/>
  <trip id="veh_5" type="normal" depart="814" from="C2B2_0" to="C1C0_0"/>
  <trip id="veh_6" type="normal" depart="1718" from="B0A0" to="B2A2"/>
  <trip id="veh_7" type="normal" depart="3315" from="A0A1" to="A2A1"/>
  <trip id="veh_8" type="imprudent" depart="1393" from="B0B1_0" to="A1B1_0"/>
  <trip id="veh_9" type="imprudent" depart="3127" from="B1A1_0" to="A1A2"/>
  <trip id="veh_10" type="imprudent" depart="396" from="B1B0" to="C1B1"/>
  <trip id="veh_11" type="normal" depart="177" from="C2C1" to="B2A2_0"/>
  <trip id="veh_12" type="imprudent" depart="1550" from="A1A0_0" to="C0B0_0"/>
  <trip id="veh_13" type="normal" depart="2574" from="C1B1_0" to="B1B0_0"/>
  <trip id="veh_14" type="normal" depart="2885" from="A1A0" to="A0B0"/>
  <trip id="veh_15" type="normal" depart="3166" from="B0C0" to="A1A0_0"/>
  <trip id="veh_16" type="normal" depart="413" from="B1B2" to="B0B1_0"/>
  <trip id="veh_17" type="normal" depart="3416" from="B1B0_0" to="A2A1"/>
  <trip id="veh_18" type="normal" depart="858" from="C1C2" to="B0B1_0"/>
  <trip id="veh_19" type="normal" depart="2799" from="C1C0_0" to="A1A0"/>
  <trip id="veh_20" type="imprudent" depart="700" from="C0B0" to="C2C1"/>
  <trip id="veh_21" type="normal" depart="1893" from="B1B2" to="B0B1_0"/>
  <trip id="veh_22" type="imprudent" depart="2621" from="C2B2" to="C0B0_0"/>
  <trip id="veh_23" type="normal" depart="1328" from="A0B0_0" to="B0A0"/>
  <trip id="veh_24" type="imprudent" depart="3297" from="B1A1" to="B1B2_0"/>
  <trip id="veh_25" type="normal" depart="864" from="C0C1" to="C2B2_0"/>
  <trip id="veh_26" type="normal" depart="2684" from="B2B1_0" to="B1B2_0"/>
  <trip id="veh_27" type="imprudent" depart="2633" from="B2A2_0" to="A1B1_0"/>
  <trip id="veh_28" type="normal" depart="1010" from="C2C1_0" to="C0B0_0"/>
  <trip id="veh_29" type="normal" depart="3059" from="C0C1_0" to="B1C1_0"/>
  <trip id="veh_30" type="normal" depart="1635" from="B1B0_0" to="B0A0"/>
  <trip id="veh_31" type="imprudent" depart="566" from="B2C2" to="B2B1_0"/>
  <trip id="veh_32" type="normal" depart="192" from="A1A2_0" to="A1B1_0"/>
  <trip id="veh_33" type="normal" depart="3244" from="C1C2_0" to="B1C1_0"/>
  <trip id="veh_34" type="normal" depart="1576" from="B1B2" to="C1B1"/>
  <trip id="veh_35" type="normal" depart="2167" from="B0B1" to="C0B0_0"/>
  <trip id="veh_36" type="imprudent" depart="47" from="C1C2_0" to="C2C1"/>
  <trip id="veh_37" type="normal" depart="2199" from="B0B1_0" to="C1C0_0"/>
  <trip id="veh_38" type="normal" depart="1202" from="B1C1_0" to="A2A1"/>
  <trip id="veh_39" type="normal" depart="2957" from="C2C1" to="B0B1"/>
  <trip id="veh_40" type="normal" depart="3120" from="A2A1_0" to="B2C2"/>
  <trip id="veh_41" type="normal" depart="2561" from="B0C0_0" to="C1C0"/>
  <trip id="veh_42" type="normal" depart="814" from="A1B1_0" to="B1B0_0"/>
  <trip id="veh_43" type="normal" depart="2209" from="B2C2_0" to="A0A1"/>
  <trip id="veh_44" type="normal" depart="2001" from="A0A1_0" to="A1A2_0"/>
  <trip id="veh_45" type="imprudent" depart="3406" from="B0C0_0" to="B0A0_0"/>
  <trip id="veh_46" type="normal" depart="2323" from="A1A0_0" to="C2C1"/>
  <trip id="veh_47" type="imprudent" depart="283" from="C0B0" to="A1B1"/>
  <trip id="veh_48" type="imprudent" depart="1946" from="C0B0_0" to="A2A1"/>
  <trip id="veh_49" type="normal" depart="2484" from="B1C1_0" to="A2B2_0"/>
  <trip id="veh_50" type="imprudent" depart="3093" from="C2C1" to="C2B2"/>
  <trip id="veh_51" type="normal" depart="1276" from="B1B2_0" to="C1C2"/>
  <trip id="veh_52" type="imprudent" depart="1794" from="B2C2_0" to="B2A2"/>
  <trip id="veh_53" type="imprudent" depart="920" from="A1A0" to="B1A1_0"/>
  <trip id="veh_54" type="imprudent" depart="2268" from="B0A0" to="C0C1_0"/>
  <trip id="veh_55" type="imprudent" depart="290" from="C2B2_0" to="C1C0"/>
  <trip id="veh_56" type="imprudent" depart="276" from="A0B0" to="B1A1_0"/>
  <trip id="veh_57" type="normal" depart="974" from="B0B1_0" to="C1C2"/>
  <trip id="veh_58" type="normal" depart="2208" from="A1B1" to="C2C1"/>
  <trip id="veh_59" type="imprudent" depart="2338" from="C0C1" to="B2B1"/>
  <trip id="veh_60" type="imprudent" depart="1937" from="B1C1" to="A2B2"/>
  <trip id="veh_61" type="normal" depart="2699" from="B1C1_0" to="B1B0"/>
  <trip id="veh_62" type="normal" depart="1912" from="C2C1" to="A0B0_0"/>
  <trip id="veh_63" type="normal" depart="2646" from="A1A2" to="A0B0_0"/>
  <trip id="veh_64" type="imprudent" depart="1389" from="A1A2" to="B0A0_0"/>
  <trip id="veh_65" type="normal" depart="2196" from="B2A2" to="A1B1"/>
  <trip id="veh_66" type="normal" depart="1140" from="B2A2_0" to="B0A0_0"/>
  <trip id="veh_67" type="imprudent" depart="308" from="B2A2" to="C0B0_0"/>
  <trip id="veh_68" type="normal" depart="2671" from="C0B0" to="A0A1"/>
  <trip id="veh_69" type="normal" depart="3086" from="B0A0_0" to="A2A1"/>
  <trip id="veh_70" type="normal" depart="1971" from="A2B2_0" to="B1B2_0"/>
  <trip id="veh_71" type="normal" depart="674" from="B1B2" to="A0A1"/>
  <trip id="veh_72" type="normal" depart="1086" from="B2A2_0" to="B0C0"/>
  <trip id="veh_73" type="normal" depart="2992" from="C0B0_0" to="C1C2"/>
  <trip id="veh_74" type="imprudent" depart="634" from="A2B2" to="B0C0"/>
  <trip id="veh_75" type="normal" depart="239" from="C0C1_0" to="C2C1_0"/>
  <trip id="veh_76" type="imprudent" depart="3063" from="B1A1" to="A0B0_0"/>
  <trip id="veh_77" type="imprudent" depart="1952" from="B2C2" to="B2C2_0"/>
  <trip id="veh_78" type="imprudent" depart="2080" from="A1A0_0" to="A2A1_0"/>
  <trip id="veh_79" type="normal" depart="278" from="C1C2_0" to="B0A0_0"/>
  <trip id="veh_80" type="normal" depart="2333" from="B0A0_0" to="C0C1_0"/>
  <trip id="veh_81" type="normal" depart="2536" from="A1A0_0" to="B1C1"/>
  <trip id="veh_82" type="normal" depart="2315" from="B2C2_0" to="B1A1"/>
  <trip id="veh_83" type="normal" depart="836" from="C1C2" to="C2B2_0"/>
  <trip id="veh_84" type="normal" depart="1087" from="B1B2_0" to="A1B1"/>
  <trip id="veh_85" type="normal" depart="1228" from="B2A2_0" to="B1A1"/>
  <trip id="veh_86" type="normal" depart="297" from="A0A1" to="B2A2_0"/>
  <trip id="veh_87" type="normal" depart="2306" from="A1A2" to="A1A0"/>
  <trip id="veh_88" type="normal" depart="2072" from="B0B1" to="A1B1"/>
  <trip id="veh_89" type="imprudent" depart="281" from="B0A0_0" to="B1B0_0"/>
  <trip id="veh_90" type="normal" depart="1794" from="C0B0" to="C2B2_0"/>
  <trip id="veh_91" type="imprudent" depart="3305" from="C1C0_0" to="B2C2_0"/>
  <trip id="veh_92" type="normal" depart="3346" from="C0B0_0" to="B0C0_0"/>
  <trip id="veh_93" type="imprudent" depart="424" from="A1B1" to="B0B1"/>
  <trip id="veh_94" type="imprudent" depart="438" from="C2C1_0" to="C0B0_0"/>
  <trip id="veh_95" type="normal" depart="1154" from="C1B1" to="A2B2_0"/>
  <trip id="veh_96" type="normal" depart="833" from="C1C2_0" to="C1C0"/>
  <trip id="veh_97" type="normal" depart="2070" from="B2B1_0" to="B0B1"/>
  <trip id="veh_98" type="normal" depart="3465" from="A0B0_0" to="A1A0_0"/>
  <trip id="veh_99" type="imprudent" depart="3397" from="B0B1_0" to="A0B0"/>
  <trip id="veh_100" type="normal" depart="3158" from="A1B1" to="C1C0"/>
  <trip id="veh_101" type="normal" depart="661" from="C2C1_0" to="B2A2"/>
  <trip id="veh_102" type="imprudent" depart="1751" from="C0B0_0" to="A0A1"/>
  <trip id="veh_103" type="imprudent" depart="2830" from="A1B1_0" to="C0B0"/>
  <trip id="veh_104" type="imprudent" depart="1512" from="C0C1_0" to="C0B0_0"/>
  <trip id="veh_105" type="normal" depart="522" from="A0B0" to="B0C0_0"/>
  <trip id="veh_106" type="imprudent" depart="3260" from="A0B0" to="B1B0"/>
  <trip id="veh_107" type="normal" depart="1022" from="C1C2" to="A1A2"/>
  <trip id="veh_108" type="normal" depart="2293" from="B1C1" to="C1B1_0"/>
  <trip id="veh_109" type="normal" depart="969" from="A2A1" to="A2A1_0"/>
  <trip id="veh_110" type="normal" depart="101" from="A2A1_0" to="C2C1_0"/>
  <trip id="veh_111" type="normal" depart="3204" from="B1C1" to="C1C2"/>
  <trip id="veh_112" type="imprudent" depart="3320" from="B0A0_0" to="B0B1_0"/>
  <trip id="veh_113" type="normal" depart="2872" from="A1A2" to="B1B2"/>
  <trip id="veh_114" type="normal" depart="1927" from="B0A0" to="A2B2"/>
  <trip id="veh_115" type="normal" depart="1885" from="B1B0" to="B0C0_0"/>
  <trip id="veh_116" type="normal" depart="932" from="B0A0" to="A0A1_0"/>
  <trip id="veh_117" type="normal" depart="1632" from="B1A1_0" to="B0B1_0"/>
  <trip id="veh_118" type="normal" depart="3167" from="B0B1_0" to="B1B0"/>
  <trip id="veh_119" type="normal" depart="1637" from="C1C2_0" to="C0B0"/>
  <trip id="veh_120" type="imprudent" depart="113" from="A1A2_0" to="B0B1"/>
  <trip id="veh_121" type="normal" depart="1087" from="A0B0" to="A1A2"/>
  <trip id="veh_122" type="normal" depart="1415" from="C2C1" to="B1A1"/>
  <trip id="veh_123" type="normal" depart="2094" from="A1A2_0" to="B1B2"/>
  <trip id="veh_124" type="normal" depart="778" from="B0B1" to="A0B0"/>
  <trip id="veh_125" type="normal" depart="6" from="B2C2_0" to="C0B0"/>
  <trip id="veh_126" type="imprudent" depart="3039" from="C2C1_0" to="C1C2"/>
  <trip id="veh_127" type="normal" depart="1766" from="A1A0" to="C1C2"/>
  <trip id="veh_128" type="normal" depart="2552" from="B1A1" to="C1C2"/>
  <trip id="veh_129" type="normal" depart="2948" from="B0C0_0" to="B2C2"/>
  <trip id="veh_130" type="normal" depart="1672" from="B1A1" to="B1B2_0"/>
  <trip id="veh_131" type="normal" depart="2270" from="A1B1" to="A2B2"/>
  <trip id="veh_132" type="normal" depart="1552" from="C1C2_0" to="C2C1_0"/>
  <trip id="veh_133" type="normal" depart="2521" from="C0C1" to="B0C0_0"/>
  <trip id="veh_134" type="imprudent" depart="3414" from="A0A1" to="B0C0_0"/>
  <trip id="veh_135" type="normal" depart="1760" from="C0C1_0" to="C1B1"/>
  <trip id="veh_136" type="imprudent" depart="1904" from="B2A2" to="C1C2_0"/>
  <trip id="veh_137" type="normal" depart="1938" from="C2C1_0" to="A2A1"/>
  <trip id="veh_138" type="normal" depart="1162" from="B2C2" to="C1C2"/>
  <trip id="veh_139" type="normal" depart="1372" from="A1A0_0" to="B0A0_0"/>
  <trip id="veh_140" type="imprudent" depart="920" from="A2B2" to="A1B1_0"/>
  <trip id="veh_141" type="normal" depart="1002" from="B2B1" to="C1B1_0"/>
  <trip id="veh_142" type="normal" depart="298" from="B2A2_0" to="B1C1"/>
  <trip id="veh_143" type="normal" depart="2357" from="A2B2" to="C2B2_0"/>
  <trip id="veh_144" type="imprudent" depart="2024" from="B1B2_0" to="B0A0_0"/>
  <trip id="veh_145" type="normal" depart="2816" from="A0A1" to="A1A2"/>
  <trip id="veh_146" type="normal" depart="896" from="A2A1_0" to="C2B2"/>
  <trip id="veh_147" type="normal" depart="205" from="C0B0_0" to="B0A0_0"/>
  <trip id="veh_148" type="normal" depart="497" from="B2A2_0" to="A1B1"/>
  <trip id="veh_149" type="normal" depart="2734" from="B2C2_0" to="C0B0_0"/>
  <trip id="veh_150" type="normal" depart="3093" from="B2A2" to="C1B1_0"/>
  <trip id="veh_151" type="normal" depart="2067" from="B1C1_0" to="C0B0_0"/>
  <trip id="veh_152" type="normal" depart="651" from="C2C1_0" to="B2B1"/>
  <trip id="veh_153" type="imprudent" depart="3079" from="B0A0_0" to="C1C0"/>
  <trip id="veh_154" type="normal" depart="3185" from="B2C2_0" to="B2B1_0"/>
  <trip id="veh_155" type="normal" depart="1124" from="B2A2" to="A1A0"/>
  <trip id="veh_156" type="normal" depart="960" from="B0B1_0" to="B1A1_0"/>
  <trip id="veh_157" type="imprudent" depart="2212" from="A1A0_0" to="A1B1"/>
  <trip id="veh_158" type="normal" depart="1568" from="C2B2" to="A1B1_0"/>
  <trip id="veh_159" type="normal" depart="263" from="B1C1" to="B1A1_0"/>
  <trip id="veh_160" type="normal" depart="1703" from="A0B0_0" to="A2B2_0"/>
  <trip id="veh_161" type="imprudent" depart="1595" from="C0C1_0" to="C2B2"/>
  <trip id="veh_162" type="normal" depart="3135" from="C0C1" to="B1B2"/>
  <trip id="veh_163" type="normal" depart="1440" from="B0C0_0" to="B1B2"/>
  <trip id="veh_164" type="normal" depart="3423" from="B1C1" to="C0B0"/>
  <trip id="veh_165" type="normal" depart="2236" from="C1B1" to="B0A0"/>
  <trip id="veh_166" type="imprudent" depart="1117" from="B1C1_0" to="B2B1_0"/>
  <trip id="veh_167" type="normal" depart="1376" from="C1C2" to="C1C2_0"/>
  <trip id="veh_168" type="normal" depart="2966" from="A2A1" to="B2A2_0"/>
  <trip id="veh_169" type="normal" depart="2548" from="C0B0" to="A0A1_0"/>
  <trip id="veh_170" type="imprudent" depart="2424" from="C0C1" to="C1C2"/>
  <trip id="veh_171" type="normal" depart="2632" from="B1C1_0" to="A1B1"/>
  <trip id="veh_172" type="normal" depart="744" from="A0B0_0" to="B0B1"/>
  <trip id="veh_173" type="normal" depart="866" from="B2A2_0" to="B1A1"/>
  <trip id="veh_174" type="imprudent" depart="1552" from="B0B1_0" to="B1C1"/>
  <trip id="veh_175" type="normal" depart="335" from="B2B1" to="A0A1_0"/>
  <trip id="veh_176" type="normal" depart="213" from="B1B0" to="B0A0"/>
  <trip id="veh_177" type="normal" depart="3199" from="C1C0_0" to="A0B0"/>
  <trip id="veh_178" type="normal" depart="1012" from="A2B2" to="A0A1_0"/>
  <trip id="veh_179" type="normal" depart="977" from="A1B1" to="B2B1"/>
  <trip id="veh_180" type="normal" depart="2310" from="A2B2_0" to="B2A2_0"/>
  <trip id="veh_181" type="normal" depart="3141" from="B1B0_0" to="A2A1"/>
  <trip id="veh_182" type="normal" depart="3063" from="C2B2_0" to="A1A2_0"/>
  <trip id="veh_183" type="normal" depart="670" from="B0C0_0" to="A1A2"/>
  <trip id="veh_184" type="normal" depart="1277" from="C0C1" to="C1C2_0"/>
  <trip id="veh_185" type="imprudent" depart="1537" from="B1B2_0" to="C2B2_0"/>
  <trip id="veh_186" type="imprudent" depart="2425" from="C2B2" to="C1C0"/>
  <trip id="veh_187" type="normal" depart="2855" from="B0C0_0" to="C1C2_0"/>
  <trip id="veh_188" type="normal" depart="495" from="C0C1" to="A0B0"/>
  <trip id="veh_189" type="imprudent" depart="1754" from="C1C2" to="B1B0_0"/>
  <trip id="veh_190" type="normal" depart="2652" from="B1A1_0" to="A0A1"/>
  <trip id="veh_191" type="normal" depart="3368" from="B2B1_0" to="A1A2"/>
  <trip id="veh_192" type="normal" depart="1483" from="C1C0" to="B2A2_0"/>
  <trip id="veh_193" type="normal" depart="1783" from="A2A1_0" to="C2C1"/>
  <trip id="veh_194" type="normal" depart="2664" from="B0B1_0" to="C1B1_0"/>
  <trip id="veh_195" type="normal" depart="2204" from="B2B1" to="B2A2_0"/>
  <trip id="veh_196" type="normal" depart="2994" from="C0C1_0" to="B0B1_0"/>
  <trip id="veh_197" type="normal" depart="1005" from="A1A0_0" to="B0B1_0"/>
  <trip id="veh_198" type="normal" depart="998" from="B2A2_0" to="C0C1"/>
  <trip id="veh_199" type="normal" depart="1552" from="B1A1_0" to="A0A1_0"/>
</additional>
