<?xml version="1.0" encoding="UTF-8"?>
<additional xmlns:xsi="http://www.w3.org/2001/XMLSchema-instance" xsi:noNamespaceSchemaLocation="http://sumo.dlr.de/xsd/additional_file.xsd">
    <vType id="normal" color="0,0.5,1" sigma="0.5" tau="1.0" speedFactor="1.0" accel="2.5" decel="4.5" />
    <vType id="imprudent" color="0.8,0,0.8" sigma="0.9" tau="0.6" speedFactor="1.3" accel="4.0" decel="7.0" />
    <trip id="veh_0" type="normal" depart="1003" from="B1C1" to="B2A2" />
    <trip id="veh_1" type="imprudent" depart="2418" from="B2B1" to="B0B1" />
    <trip id="veh_2" type="normal" depart="895" from="B1C1" to="B0B1" />
    <trip id="veh_3" type="imprudent" depart="2932" from="B1C1" to="B1B0" />
    <trip id="veh_4" type="normal" depart="1839" from="A0A1" to="C2B2" />
    <trip id="veh_5" type="normal" depart="2859" from="B1C1" to="B1B2" />
    <trip id="veh_6" type="normal" depart="881" from="A2B2" to="B0C0" />
    <trip id="veh_7" type="normal" depart="379" from="A1A2" to="A2A1" />
    <trip id="veh_8" type="normal" depart="2472" from="A1A2" to="C0C1" />
    <trip id="veh_9" type="imprudent" depart="2196" from="B1C1" to="B1A1" />
    <trip id="veh_10" type="imprudent" depart="2261" from="A0A1" to="B0B1" />
    <trip id="veh_11" type="imprudent" depart="2885" from="A1A2" to="B1B0" />
    <trip id="veh_12" type="imprudent" depart="326" from="C0B0" to="C1B1" />
    <trip id="veh_13" type="normal" depart="1138" from="B2B1" to="C1C2" />
    <trip id="veh_14" type="normal" depart="1516" from="A1A2" to="B1B2" />
    <trip id="veh_15" type="normal" depart="2495" from="A2B2" to="B0B1" />
    <trip id="veh_16" type="normal" depart="1893" from="C0B0" to="B1B2" />
    <trip id="veh_17" type="normal" depart="3452" from="C0B0" to="A0B0" />
    <trip id="veh_18" type="normal" depart="3366" from="B1C1" to="C2B2" />
    <trip id="veh_19" type="imprudent" depart="1096" from="A1A2" to="C1C2" />
    <trip id="veh_20" type="imprudent" depart="2684" from="A1A2" to="B1B0" />
    <trip id="veh_21" type="normal" depart="1084" from="B0A0" to="B0C0" />
    <trip id="veh_22" type="imprudent" depart="2390" from="A2B2" to="A1A0" />
    <trip id="veh_23" type="normal" depart="2087" from="C0B0" to="B0C0" />
    <trip id="veh_24" type="normal" depart="626" from="B1C1" to="A2A1" />
    <trip id="veh_25" type="normal" depart="1576" from="A0A1" to="B0B1" />
    <trip id="veh_26" type="normal" depart="2266" from="B0A0" to="B2A2" />
    <trip id="veh_27" type="normal" depart="2792" from="B1C1" to="A2A1" />
    <trip id="veh_28" type="normal" depart="456" from="A2B2" to="A0B0" />
    <trip id="veh_29" type="imprudent" depart="13" from="A1B1" to="B1A1" />
    <trip id="veh_30" type="normal" depart="2079" from="A2B2" to="B1B2" />
    <trip id="veh_31" type="normal" depart="626" from="A2B2" to="B1B0" />
    <trip id="veh_32" type="normal" depart="2453" from="A1B1" to="C2C1" />
    <trip id="veh_33" type="normal" depart="1486" from="B1C1" to="A2A1" />
    <trip id="veh_34" type="normal" depart="237" from="A2B2" to="C2B2" />
    <trip id="veh_35" type="imprudent" depart="2997" from="B2B1" to="B0B1" />
    <trip id="veh_36" type="normal" depart="525" from="B2B1" to="B0C0" />
    <trip id="veh_37" type="normal" depart="2161" from="A1B1" to="B2A2" />
    <trip id="veh_38" type="normal" depart="2208" from="A0A1" to="B1B0" />
    <trip id="veh_39" type="normal" depart="1634" from="C0B0" to="C1B1" />
    <trip id="veh_40" type="normal" depart="2119" from="A1A2" to="B1A1" />
    <trip id="veh_41" type="normal" depart="262" from="C0B0" to="C2B2" />
    <trip id="veh_42" type="normal" depart="29" from="C0B0" to="C2B2" />
    <trip id="veh_43" type="imprudent" depart="276" from="B1C1" to="C2B2" />
    <trip id="veh_44" type="normal" depart="2105" from="A1A2" to="B0B1" />
    <trip id="veh_45" type="imprudent" depart="2208" from="B0A0" to="B1B0" />
    <trip id="veh_46" type="imprudent" depart="3213" from="B0A0" to="C2B2" />
    <trip id="veh_47" type="normal" depart="386" from="A0A1" to="B1B0" />
    <trip id="veh_48" type="imprudent" depart="1734" from="A0A1" to="C0C1" />
    <trip id="veh_49" type="normal" depart="248" from="B1C1" to="A2A1" />
    <trip id="veh_50" type="normal" depart="1018" from="A1A2" to="A2A1" />
    <trip id="veh_51" type="imprudent" depart="1728" from="B0A0" to="B0C0" />
    <trip id="veh_52" type="imprudent" depart="308" from="B0A0" to="C2B2" />
    <trip id="veh_53" type="normal" depart="2671" from="B2B1" to="C1C0" />
    <trip id="veh_54" type="normal" depart="3086" from="B1C1" to="B0B1" />
    <trip id="veh_55" type="normal" depart="1989" from="A1B1" to="A1A0" />
    <trip id="veh_56" type="normal" depart="674" from="A0A1" to="C1C0" />
    <trip id="veh_57" type="normal" depart="3211" from="A0A1" to="B2A2" />
    <trip id="veh_58" type="normal" depart="2853" from="A2B2" to="A1A0" />
    <trip id="veh_59" type="normal" depart="777" from="B0A0" to="B0C0" />
    <trip id="veh_60" type="imprudent" depart="3063" from="B1C1" to="C1C0" />
    <trip id="veh_61" type="normal" depart="2059" from="B1C1" to="B2C2" />
    <trip id="veh_62" type="normal" depart="2080" from="A1B1" to="C1C0" />
    <trip id="veh_63" type="imprudent" depart="2437" from="A1B1" to="B0B1" />
    <trip id="veh_64" type="imprudent" depart="491" from="C0B0" to="C1C2" />
    <trip id="veh_65" type="normal" depart="2536" from="C0B0" to="C1C0" />
    <trip id="veh_66" type="imprudent" depart="836" from="A1A2" to="B2A2" />
    <trip id="veh_67" type="normal" depart="1087" from="A1A2" to="C2B2" />
    <trip id="veh_68" type="normal" depart="1295" from="A2B2" to="B1A1" />
    <trip id="veh_69" type="normal" depart="1877" from="B2B1" to="C2C1" />
    <trip id="veh_70" type="normal" depart="2202" from="B2B1" to="B0B1" />
    <trip id="veh_71" type="imprudent" depart="1429" from="A2B2" to="B0C0" />
    <trip id="veh_72" type="normal" depart="1167" from="C0B0" to="C0C1" />
    <trip id="veh_73" type="imprudent" depart="2735" from="A2B2" to="C2C1" />
    <trip id="veh_74" type="normal" depart="550" from="A2B2" to="A2A1" />
    <trip id="veh_75" type="imprudent" depart="1115" from="B2B1" to="B0C0" />
    <trip id="veh_76" type="imprudent" depart="833" from="C0B0" to="A0B0" />
    <trip id="veh_77" type="normal" depart="1028" from="A2B2" to="B2C2" />
    <trip id="veh_78" type="normal" depart="2598" from="B1C1" to="B0B1" />
    <trip id="veh_79" type="normal" depart="14" from="A2B2" to="C1C0" />
    <trip id="veh_80" type="normal" depart="661" from="A1B1" to="B2A2" />
    <trip id="veh_81" type="normal" depart="458" from="A0A1" to="C2C1" />
    <trip id="veh_82" type="imprudent" depart="3418" from="A1B1" to="C1C0" />
    <trip id="veh_83" type="normal" depart="522" from="A1B1" to="A1A0" />
    <trip id="veh_84" type="imprudent" depart="1465" from="A1A2" to="C1C0" />
    <trip id="veh_85" type="imprudent" depart="1448" from="C0B0" to="A2A1" />
    <trip id="veh_86" type="normal" depart="969" from="A0A1" to="B0C0" />
    <trip id="veh_87" type="normal" depart="101" from="A1B1" to="A1A0" />
    <trip id="veh_88" type="imprudent" depart="3285" from="A1A2" to="A1A0" />
    <trip id="veh_89" type="normal" depart="652" from="C0B0" to="B2A2" />
    <trip id="veh_90" type="normal" depart="158" from="B2B1" to="C1C2" />
    <trip id="veh_91" type="normal" depart="3344" from="C0B0" to="B1B0" />
    <trip id="veh_92" type="normal" depart="3360" from="A1A2" to="C1B1" />
    <trip id="veh_93" type="normal" depart="96" from="C0B0" to="C2B2" />
    <trip id="veh_94" type="normal" depart="1141" from="A0A1" to="A0B0" />
    <trip id="veh_95" type="normal" depart="2627" from="A2B2" to="C0C1" />
    <trip id="veh_96" type="normal" depart="472" from="A1A2" to="C2C1" />
    <trip id="veh_97" type="normal" depart="2378" from="A2B2" to="B1B2" />
    <trip id="veh_98" type="normal" depart="444" from="A2B2" to="C1C0" />
    <trip id="veh_99" type="normal" depart="1787" from="A1A2" to="A0B0" />
    <trip id="veh_100" type="normal" depart="2361" from="B2B1" to="C1C2" />
    <trip id="veh_101" type="imprudent" depart="6" from="B1C1" to="A1A0" />
    <trip id="veh_102" type="normal" depart="1766" from="C0B0" to="C0C1" />
    <trip id="veh_103" type="imprudent" depart="2717" from="A1A2" to="A0B0" />
    <trip id="veh_104" type="normal" depart="2731" from="A2B2" to="C1B1" />
    <trip id="veh_105" type="normal" depart="2270" from="A0A1" to="C1B1" />
    <trip id="veh_106" type="imprudent" depart="2774" from="A0A1" to="C1C2" />
    <trip id="veh_107" type="normal" depart="1663" from="A1B1" to="C1B1" />
    <trip id="veh_108" type="normal" depart="1175" from="B1C1" to="C1B1" />
    <trip id="veh_109" type="imprudent" depart="1809" from="A1A2" to="B1A1" />
    <trip id="veh_110" type="normal" depart="3251" from="C0B0" to="B2C2" />
    <trip id="veh_111" type="normal" depart="1162" from="A1B1" to="B0B1" />
    <trip id="veh_112" type="normal" depart="3352" from="A1A2" to="B0B1" />
    <trip id="veh_113" type="normal" depart="920" from="C0B0" to="C1B1" />
    <trip id="veh_114" type="normal" depart="189" from="A1B1" to="C2C1" />
    <trip id="veh_115" type="imprudent" depart="1865" from="B0A0" to="B0B1" />
    <trip id="veh_116" type="normal" depart="2024" from="C0B0" to="C1C2" />
    <trip id="veh_117" type="normal" depart="3075" from="A1B1" to="C2C1" />
    <trip id="veh_118" type="normal" depart="896" from="B2B1" to="A1A0" />
    <trip id="veh_119" type="imprudent" depart="2283" from="B0A0" to="C1C0" />
    <trip id="veh_120" type="imprudent" depart="546" from="B2B1" to="B1A1" />
    <trip id="veh_121" type="normal" depart="2509" from="A1A2" to="B1A1" />
    <trip id="veh_122" type="normal" depart="651" from="A0A1" to="B1A1" />
    <trip id="veh_123" type="normal" depart="1061" from="B0A0" to="B1A1" />
    <trip id="veh_124" type="normal" depart="2567" from="A2B2" to="B2C2" />
    <trip id="veh_125" type="imprudent" depart="2922" from="B0A0" to="B0B1" />
    <trip id="veh_126" type="imprudent" depart="1309" from="A2B2" to="A0B0" />
    <trip id="veh_127" type="normal" depart="617" from="B2B1" to="B0C0" />
    <trip id="veh_128" type="imprudent" depart="263" from="A1B1" to="B1B0" />
    <trip id="veh_129" type="normal" depart="1703" from="A1A2" to="B1A1" />
    <trip id="veh_130" type="imprudent" depart="3153" from="A0A1" to="C1C2" />
    <trip id="veh_131" type="normal" depart="1953" from="B1C1" to="C1C2" />
    <trip id="veh_132" type="imprudent" depart="3086" from="A1A2" to="C1B1" />
    <trip id="veh_133" type="normal" depart="1999" from="A0A1" to="C2B2" />
    <trip id="veh_134" type="imprudent" depart="118" from="A0A1" to="B2C2" />
    <trip id="veh_135" type="normal" depart="3442" from="A0A1" to="B1B2" />
    <trip id="veh_136" type="normal" depart="1613" from="A1B1" to="C2C1" />
    <trip id="veh_137" type="normal" depart="2632" from="B1C1" to="B0B1" />
    <trip id="veh_138" type="normal" depart="205" from="B0A0" to="B1B2" />
    <trip id="veh_139" type="imprudent" depart="1862" from="A1A2" to="B1B0" />
    <trip id="veh_140" type="normal" depart="3080" from="A0A1" to="B2A2" />
    <trip id="veh_141" type="normal" depart="3419" from="A0A1" to="B2A2" />
    <trip id="veh_142" type="imprudent" depart="1433" from="B1C1" to="C1C0" />
    <trip id="veh_143" type="imprudent" depart="3089" from="B2B1" to="C1C0" />
    <trip id="veh_144" type="imprudent" depart="3437" from="C0B0" to="B1B0" />
    <trip id="veh_145" type="imprudent" depart="517" from="A1B1" to="C2B2" />
    <trip id="veh_146" type="normal" depart="1904" from="B2B1" to="B1B0" />
    <trip id="veh_147" type="normal" depart="2481" from="A1A2" to="B1B2" />
    <trip id="veh_148" type="normal" depart="1274" from="B2B1" to="B1B2" />
    <trip id="veh_149" type="imprudent" depart="2358" from="B1C1" to="C1B1" />
    <trip id="veh_150" type="normal" depart="2928" from="A0A1" to="C1C2" />
    <trip id="veh_151" type="imprudent" depart="2855" from="C0B0" to="A2A1" />
    <trip id="veh_152" type="normal" depart="1422" from="B2B1" to="C1C0" />
    <trip id="veh_153" type="normal" depart="2072" from="A1A2" to="B0B1" />
    <trip id="veh_154" type="normal" depart="3368" from="B1C1" to="A1A0" />
    <trip id="veh_155" type="normal" depart="2603" from="A0A1" to="C0C1" />
    <trip id="veh_156" type="normal" depart="1783" from="B0A0" to="B0C0" />
    <trip id="veh_157" type="imprudent" depart="1904" from="A2B2" to="B2C2" />
    <trip id="veh_158" type="normal" depart="3488" from="A2B2" to="A0B0" />
    <trip id="veh_159" type="imprudent" depart="1846" from="B2B1" to="B2A2" />
    <trip id="veh_160" type="imprudent" depart="1377" from="B0A0" to="C1C2" />
    <trip id="veh_161" type="imprudent" depart="1997" from="A1A2" to="B1B2" />
    <trip id="veh_162" type="imprudent" depart="1145" from="A2B2" to="A0B0" />
    <trip id="veh_163" type="normal" depart="2116" from="A2B2" to="C2C1" />
    <trip id="veh_164" type="normal" depart="2949" from="B2B1" to="C2B2" />
    <trip id="veh_165" type="normal" depart="2645" from="C0B0" to="B2C2" />
    <trip id="veh_166" type="normal" depart="381" from="B0A0" to="C2C1" />
    <trip id="veh_167" type="imprudent" depart="1254" from="A0A1" to="C2B2" />
    <trip id="veh_168" type="normal" depart="2267" from="A1A2" to="B2C2" />
    <trip id="veh_169" type="normal" depart="1441" from="A0A1" to="A0B0" />
    <trip id="veh_170" type="normal" depart="1029" from="A2B2" to="C1B1" />
    <trip id="veh_171" type="imprudent" depart="489" from="C0B0" to="A0B0" />
    <trip id="veh_172" type="normal" depart="886" from="A1B1" to="B1B0" />
    <trip id="veh_173" type="normal" depart="411" from="A2B2" to="C1B1" />
    <trip id="veh_174" type="normal" depart="1478" from="A2B2" to="C2B2" />
    <trip id="veh_175" type="imprudent" depart="1123" from="B1C1" to="B0C0" />
    <trip id="veh_176" type="imprudent" depart="2856" from="B1C1" to="C1B1" />
    <trip id="veh_177" type="normal" depart="50" from="B0A0" to="A2A1" />
    <trip id="veh_178" type="normal" depart="1804" from="B0A0" to="B2C2" />
    <trip id="veh_179" type="normal" depart="1956" from="B1C1" to="B2A2" />
    <trip id="veh_180" type="imprudent" depart="2014" from="B2B1" to="C1C2" />
    <trip id="veh_181" type="imprudent" depart="611" from="B1C1" to="B0C0" />
    <trip id="veh_182" type="normal" depart="1016" from="A2B2" to="B0B1" />
    <trip id="veh_183" type="imprudent" depart="3177" from="A0A1" to="C2B2" />
    <trip id="veh_184" type="normal" depart="1217" from="B0A0" to="B1A1" />
    <trip id="veh_185" type="normal" depart="2329" from="A0A1" to="C1B1" />
    <trip id="veh_186" type="normal" depart="2562" from="B2B1" to="B1B0" />
    <trip id="veh_187" type="imprudent" depart="982" from="B2B1" to="B1B2" />
    <trip id="veh_188" type="imprudent" depart="10" from="B2B1" to="B1B2" />
    <trip id="veh_189" type="normal" depart="133" from="B0A0" to="C1B1" />
    <trip id="veh_190" type="imprudent" depart="291" from="A2B2" to="B1A1" />
    <trip id="veh_191" type="normal" depart="1741" from="A2B2" to="B1B0" />
    <trip id="veh_192" type="imprudent" depart="1088" from="C0B0" to="B0C0" />
    <trip id="veh_193" type="normal" depart="679" from="B2B1" to="C1C0" />
    <trip id="veh_194" type="normal" depart="509" from="A2B2" to="B1A1" />
    <trip id="veh_195" type="normal" depart="1115" from="A2B2" to="C1C2" />
    <trip id="veh_196" type="normal" depart="329" from="B0A0" to="B1A1" />
    <trip id="veh_197" type="normal" depart="2472" from="A0A1" to="A0B0" />
    <trip id="veh_198" type="imprudent" depart="2761" from="B2B1" to="C2B2" />
    <trip id="veh_199" type="normal" depart="2360" from="B1C1" to="B2A2" />
</additional>
