<routes xmlns="http://sumo.dlr.de">
  <trip id="trip_0" depart="102" from="C1C0" to="A1A2"/>
  <trip id="trip_1" depart="1003" from="C2C1" to="B0B1"/>
  <trip id="trip_2" depart="3016" from="B0A0" to="A1B1"/>
  <trip id="trip_3" depart="3033" from="A1A2" to="C1C2"/>
  <trip id="trip_4" depart="2418" from="C0B0" to="A1A0"/>
  <trip id="trip_5" depart="122" from="B1C1" to="A0B0"/>
  <trip id="trip_6" depart="952" from="A1A0" to="A2B2"/>
  <trip id="trip_7" depart="108" from="B2C2" to="C1B1"/>
  <trip id="trip_8" depart="2932" from="C0B0" to="A2B2"/>
  <trip id="trip_9" depart="2232" from="C1C0" to="C2B2"/>
  <trip id="trip_10" depart="1839" from="B1C1" to="B0A0"/>
  <trip id="trip_11" depart="3315" from="C0C1" to="B0B1"/>
  <trip id="trip_12" depart="2859" from="A0A1" to="A2A1"/>
  <trip id="trip_13" depart="1138" from="B1C1" to="B1A1"/>
  <trip id="trip_14" depart="3127" from="A1B1" to="A2B2"/>
  <trip id="trip_15" depart="379" from="B1A1" to="A1A2"/>
  <trip id="trip_16" depart="1470" from="B1B2" to="A1A2"/>
  <trip id="trip_17" depart="1083" from="B1B0" to="C1B1"/>
  <trip id="trip_18" depart="1881" from="A0B0" to="C2C1"/>
  <trip id="trip_19" depart="1550" from="C0B0" to="A1A2"/>
  <trip id="trip_20" depart="1200" from="A1A0" to="C0B0"/>
  <trip id="trip_21" depart="1481" from="C1C0" to="C1B1"/>
  <trip id="trip_22" depart="2885" from="C0C1" to="A2B2"/>
  <trip id="trip_23" depart="2708" from="A1A0" to="A0B0"/>
  <trip id="trip_24" depart="326" from="B0A0" to="B0C0"/>
  <trip id="trip_25" depart="1556" from="B0A0" to="A1A2"/>
  <trip id="trip_26" depart="2603" from="B0B1" to="B2A2"/>
  <trip id="trip_27" depart="1516" from="B1B0" to="A2A1"/>
  <trip id="trip_28" depart="2745" from="B1B0" to="A2B2"/>
  <trip id="trip_29" depart="2799" from="B0B1" to="C2B2"/>
  <trip id="trip_30" depart="2495" from="C1C0" to="A1A0"/>
  <trip id="trip_31" depart="2187" from="C1C0" to="A2A1"/>
  <trip id="trip_32" depart="669" from="C2C1" to="B0A0"/>
  <trip id="trip_33" depart="1105" from="B2A2" to="B1B2"/>
  <trip id="trip_34" depart="2281" from="C1C0" to="C2B2"/>
  <trip id="trip_35" depart="1328" from="B0A0" to="C1C2"/>
  <trip id="trip_36" depart="3366" from="A0B0" to="B0A0"/>
  <trip id="trip_37" depart="1643" from="A0B0" to="B1A1"/>
  <trip id="trip_38" depart="864" from="B0B1" to="A1A0"/>
  <trip id="trip_39" depart="1288" from="C0C1" to="C2B2"/>
  <trip id="trip_40" depart="2044" from="A2B2" to="C1C0"/>
  <trip id="trip_41" depart="1879" from="B1B2" to="C1C0"/>
  <trip id="trip_42" depart="571" from="A1B1" to="B0B1"/>
  <trip id="trip_43" depart="2299" from="B0A0" to="C2C1"/>
  <trip id="trip_44" depart="3059" from="C0B0" to="B0B1"/>
  <trip id="trip_45" depart="2390" from="C0C1" to="B1C1"/>
  <trip id="trip_46" depart="898" from="B1B2" to="B1B0"/>
  <trip id="trip_47" depart="2021" from="A1B1" to="B2C2"/>
  <trip id="trip_48" depart="449" from="A1A0" to="A0B0"/>
  <trip id="trip_49" depart="655" from="A1B1" to="C1C0"/>
  <trip id="trip_50" depart="2442" from="C1C2" to="B1C1"/>
  <trip id="trip_51" depart="1563" from="A1A0" to="B1B2"/>
  <trip id="trip_52" depart="2167" from="C1B1" to="B2A2"/>
  <trip id="trip_53" depart="47" from="B0B1" to="C0B0"/>
  <trip id="trip_54" depart="469" from="C1C2" to="C2C1"/>
  <trip id="trip_55" depart="3075" from="C1C2" to="C0B0"/>
  <trip id="trip_56" depart="1393" from="B0B1" to="C1C0"/>
  <trip id="trip_57" depart="1780" from="A1A2" to="B0C0"/>
  <trip id="trip_58" depart="13" from="A2A1" to="B2A2"/>
  <trip id="trip_59" depart="2050" from="C2C1" to="B0B1"/>
  <trip id="trip_60" depart="435" from="A2A1" to="B2C2"/>
  <trip id="trip_61" depart="3447" from="C1C0" to="B0C0"/>
  <trip id="trip_62" depart="2494" from="C1C0" to="B2C2"/>
  <trip id="trip_63" depart="1531" from="A2B2" to="A1B1"/>
  <trip id="trip_64" depart="3189" from="A2A1" to="C0B0"/>
  <trip id="trip_65" depart="2453" from="B2C2" to="A0A1"/>
  <trip id="trip_66" depart="79" from="B1A1" to="B2B1"/>
  <trip id="trip_67" depart="3406" from="A1A2" to="B1B0"/>
  <trip id="trip_68" depart="237" from="B0C0" to="B0A0"/>
  <trip id="trip_69" depart="322" from="B0A0" to="C0C1"/>
  <trip id="trip_70" depart="1990" from="A1A0" to="C2C1"/>
  <trip id="trip_71" depart="3136" from="A1A0" to="C0B0"/>
  <trip id="trip_72" depart="1946" from="A1B1" to="C1C2"/>
  <trip id="trip_73" depart="1085" from="C0B0" to="A2A1"/>
  <trip id="trip_74" depart="1733" from="B2C2" to="C1B1"/>
  <trip id="trip_75" depart="3093" from="A2B2" to="C0B0"/>
  <trip id="trip_76" depart="823" from="C2C1" to="C2B2"/>
  <trip id="trip_77" depart="1634" from="C2B2" to="B0C0"/>
  <trip id="trip_78" depart="1529" from="C1C2" to="C1C0"/>
  <trip id="trip_79" depart="1849" from="B2A2" to="B2C2"/>
  <trip id="trip_80" depart="920" from="A1A2" to="B0A0"/>
  <trip id="trip_81" depart="86" from="A1A0" to="B1A1"/>
  <trip id="trip_82" depart="942" from="C0C1" to="C0B0"/>
  <trip id="trip_83" depart="29" from="C0C1" to="B0A0"/>
  <trip id="trip_84" depart="2584" from="A1A0" to="C2B2"/>
  <trip id="trip_85" depart="276" from="A0B0" to="B0A0"/>
  <trip id="trip_86" depart="290" from="A0B0" to="B1A1"/>
  <trip id="trip_87" depart="1140" from="B2C2" to="B0A0"/>
  <trip id="trip_88" depart="877" from="C1C2" to="B2B1"/>
  <trip id="trip_89" depart="2962" from="C0B0" to="A1B1"/>
  <trip id="trip_90" depart="995" from="C0C1" to="B2B1"/>
  <trip id="trip_91" depart="779" from="B2B1" to="B1C1"/>
  <trip id="trip_92" depart="1765" from="A1A2" to="C1C2"/>
  <trip id="trip_93" depart="1683" from="B1B0" to="B1C1"/>
  <trip id="trip_94" depart="221" from="B2A2" to="C2C1"/>
  <trip id="trip_95" depart="2646" from="C1C2" to="C1C0"/>
  <trip id="trip_96" depart="1649" from="A1A2" to="A0B0"/>
  <trip id="trip_97" depart="3279" from="C2C1" to="B1A1"/>
  <trip id="trip_98" depart="784" from="A1A2" to="B0A0"/>
  <trip id="trip_99" depart="1837" from="A2B2" to="C0B0"/>
  <trip id="trip_100" depart="751" from="A1B1" to="B1C1"/>
  <trip id="trip_101" depart="1023" from="B0B1" to="B2A2"/>
  <trip id="trip_102" depart="3309" from="A1A0" to="B2A2"/>
  <trip id="trip_103" depart="207" from="C0B0" to="A1A2"/>
  <trip id="trip_104" depart="3424" from="C1C0" to="C0B0"/>
  <trip id="trip_105" depart="3086" from="A0A1" to="A1A0"/>
  <trip id="trip_106" depart="1664" from="B0A0" to="A2A1"/>
  <trip id="trip_107" depart="1642" from="B2B1" to="A2B2"/>
  <trip id="trip_108" depart="1552" from="A0B0" to="A2A1"/>
  <trip id="trip_109" depart="1086" from="A0A1" to="B1B2"/>
  <trip id="trip_110" depart="1732" from="B2A2" to="B0C0"/>
  <trip id="trip_111" depart="3208" from="C2B2" to="C2C1"/>
  <trip id="trip_112" depart="2942" from="C0B0" to="C1C2"/>
  <trip id="trip_113" depart="777" from="B2B1" to="A1B1"/>
  <trip id="trip_114" depart="239" from="B0C0" to="A2B2"/>
  <trip id="trip_115" depart="2220" from="C0C1" to="C2C1"/>
  <trip id="trip_116" depart="1284" from="A0B0" to="C2C1"/>
  <trip id="trip_117" depart="1952" from="A0B0" to="C0C1"/>
  <trip id="trip_118" depart="232" from="B2C2" to="A2A1"/>
  <trip id="trip_119" depart="3487" from="B2C2" to="A1A0"/>
  <trip id="trip_120" depart="2437" from="A2A1" to="A1A0"/>
  <trip id="trip_121" depart="963" from="A1A0" to="C1C2"/>
  <trip id="trip_122" depart="2333" from="B1B2" to="A1A2"/>
  <trip id="trip_123" depart="2435" from="B0A0" to="C0C1"/>
  <trip id="trip_124" depart="335" from="A0B0" to="C1B1"/>
  <trip id="trip_125" depart="2390" from="B1C1" to="C1C2"/>
  <trip id="trip_126" depart="1295" from="C0C1" to="B2C2"/>
  <trip id="trip_127" depart="2743" from="B0B1" to="A2B2"/>
  <trip id="trip_128" depart="977" from="C2B2" to="B1A1"/>
  <trip id="trip_129" depart="536" from="B0B1" to="B1B2"/>
  <trip id="trip_130" depart="1228" from="C1C2" to="C1C0"/>
  <trip id="trip_131" depart="3079" from="B2A2" to="B1A1"/>
  <trip id="trip_132" depart="1877" from="A1A0" to="A0A1"/>
  <trip id="trip_133" depart="409" from="C1B1" to="C0C1"/>
  <trip id="trip_134" depart="873" from="A1A0" to="C0B0"/>
  <trip id="trip_135" depart="542" from="B2C2" to="B0B1"/>
  <trip id="trip_136" depart="1000" from="B1B0" to="A1A0"/>
  <trip id="trip_137" depart="646" from="B1B0" to="B0C0"/>
  <trip id="trip_138" depart="2881" from="B2A2" to="C0B0"/>
  <trip id="trip_139" depart="3305" from="B0C0" to="C1B1"/>
  <trip id="trip_140" depart="32" from="C1C0" to="B2C2"/>
  <trip id="trip_141" depart="1226" from="C1C2" to="C0B0"/>
  <trip id="trip_142" depart="550" from="C1C2" to="A1A2"/>
  <trip id="trip_143" depart="438" from="B0B1" to="A1A2"/>
  <trip id="trip_144" depart="636" from="C2C1" to="C0B0"/>
  <trip id="trip_145" depart="2477" from="B0B1" to="B0C0"/>
  <trip id="trip_146" depart="1404" from="A2B2" to="C2B2"/>
  <trip id="trip_147" depart="2597" from="A2B2" to="C1C2"/>
  <trip id="trip_148" depart="2001" from="B0B1" to="B2C2"/>
  <trip id="trip_149" depart="378" from="B0B1" to="A0B0"/>
  <trip id="trip_150" depart="3397" from="C1C0" to="B1C1"/>
  <trip id="trip_151" depart="14" from="B0B1" to="A0B0"/>
  <trip id="trip_152" depart="2609" from="B1A1" to="A1B1"/>
  <trip id="trip_153" depart="3036" from="B0B1" to="A2A1"/>
  <trip id="trip_154" depart="2890" from="B2A2" to="C0B0"/>
  <trip id="trip_155" depart="39" from="B1C1" to="C0B0"/>
  <trip id="trip_156" depart="2830" from="A1A2" to="A1A0"/>
  <trip id="trip_157" depart="147" from="A1B1" to="C0B0"/>
  <trip id="trip_158" depart="2263" from="B1B0" to="C0C1"/>
  <trip id="trip_159" depart="522" from="A1B1" to="B1C1"/>
  <trip id="trip_160" depart="1493" from="A0B0" to="B0C0"/>
  <trip id="trip_161" depart="860" from="A0B0" to="B1B0"/>
  <trip id="trip_162" depart="2731" from="C1C2" to="B0A0"/>
  <trip id="trip_163" depart="3195" from="A1A2" to="B1B0"/>
  <trip id="trip_164" depart="2542" from="C0B0" to="B1C1"/>
  <trip id="trip_165" depart="969" from="C2C1" to="A1B1"/>
  <trip id="trip_166" depart="101" from="A2A1" to="B1C1"/>
  <trip id="trip_167" depart="1360" from="A2A1" to="C2C1"/>
  <trip id="trip_168" depart="3010" from="B1C1" to="C1C2"/>
  <trip id="trip_169" depart="652" from="B0A0" to="B0B1"/>
  <trip id="trip_170" depart="1566" from="C2B2" to="A1A2"/>
  <trip id="trip_171" depart="911" from="A0B0" to="B2B1"/>
  <trip id="trip_172" depart="1432" from="A2B2" to="B2A2"/>
  <trip id="trip_173" depart="913" from="B0C0" to="B0A0"/>
  <trip id="trip_174" depart="791" from="A0A1" to="C1C2"/>
  <trip id="trip_175" depart="1141" from="B1B2" to="B1A1"/>
  <trip id="trip_176" depart="1438" from="A1A0" to="B0B1"/>
  <trip id="trip_177" depart="1637" from="C1C0" to="B2C2"/>
  <trip id="trip_178" depart="1356" from="C1C2" to="C0B0"/>
  <trip id="trip_179" depart="1069" from="A0A1" to="A1A2"/>
  <trip id="trip_180" depart="1087" from="A2A1" to="C0C1"/>
  <trip id="trip_181" depart="2443" from="A0B0" to="A1A2"/>
  <trip id="trip_182" depart="2984" from="B1C1" to="B1B0"/>
  <trip id="trip_183" depart="2483" from="B1A1" to="B1C1"/>
  <trip id="trip_184" depart="1577" from="B2C2" to="A1A2"/>
  <trip id="trip_185" depart="1043" from="C0C1" to="A2B2"/>
  <trip id="trip_186" depart="1786" from="A0B0" to="C2B2"/>
  <trip id="trip_187" depart="3303" from="A0A1" to="B2C2"/>
  <trip id="trip_188" depart="2946" from="C0B0" to="C1C2"/>
  <trip id="trip_189" depart="807" from="C2C1" to="C1C2"/>
  <trip id="trip_190" depart="286" from="B1B0" to="B1C1"/>
  <trip id="trip_191" depart="2552" from="C1C2" to="B1A1"/>
  <trip id="trip_192" depart="3473" from="B1A1" to="C1C2"/>
  <trip id="trip_193" depart="1230" from="A1A2" to="C2C1"/>
  <trip id="trip_194" depart="2731" from="B2C2" to="B0C0"/>
  <trip id="trip_195" depart="1648" from="B1C1" to="B1A1"/>
  <trip id="trip_196" depart="2270" from="C2B2" to="B0C0"/>
  <trip id="trip_197" depart="1722" from="A1B1" to="A2B2"/>
  <trip id="trip_198" depart="2774" from="C1C2" to="B1B2"/>
  <trip id="trip_199" depart="2521" from="C2C1" to="A2A1"/>
</routes>
