<?xml version="1.0" encoding="utf-8"?>
<routes xmlns:xsi="http://www.w3.org/2001/XMLSchema-instance" xsi:noNamespaceSchemaLocation="http://sumo.dlr.de/xsd/routes_file.xsd">
  <!-- Escenario 048 Hangzhou 4x4 seed=90 -->
  <vType id="car" accel="2.6" decel="4.5" length="5.0" minGap="2.5" maxSpeed="13.89" sigma="0.5"/>
  <route id="r_WE_0" edges="A0B0 B0C0 C0D0"/>
  <route id="r_WE_1" edges="A1B1 B1C1 C1D1"/>
  <route id="r_WE_2" edges="A2B2 B2C2 C2D2"/>
  <route id="r_WE_3" edges="A3B3 B3C3 C3D3"/>
  <route id="r_EW_0" edges="D0C0 C0B0 B0A0"/>
  <route id="r_EW_1" edges="D1C1 C1B1 B1A1"/>
  <route id="r_EW_2" edges="D2C2 C2B2 B2A2"/>
  <route id="r_EW_3" edges="D3C3 C3B3 B3A3"/>
  <route id="r_SN_A" edges="A0A1 A1A2 A2A3"/>
  <route id="r_SN_B" edges="B0B1 B1B2 B2B3"/>
  <route id="r_SN_C" edges="C0C1 C1C2 C2C3"/>
  <route id="r_SN_D" edges="D0D1 D1D2 D2D3"/>
  <route id="r_NS_A" edges="A3A2 A2A1 A1A0"/>
  <route id="r_NS_B" edges="B3B2 B2B1 B1B0"/>
  <route id="r_NS_C" edges="C3C2 C2C1 C1C0"/>
  <route id="r_NS_D" edges="D3D2 D2D1 D1D0"/>
  <flow id="f_000" route="r_WE_0" type="car" begin="0" end="1800" period="8.16" number="220"/>
  <flow id="f_001" route="r_WE_1" type="car" begin="0" end="1800" period="7.74" number="232"/>
  <flow id="f_002" route="r_WE_2" type="car" begin="0" end="1800" period="9.84" number="182"/>
  <flow id="f_003" route="r_WE_3" type="car" begin="0" end="1800" period="9.57" number="188"/>
  <flow id="f_004" route="r_EW_0" type="car" begin="0" end="1800" period="9.75" number="184"/>
  <flow id="f_005" route="r_EW_1" type="car" begin="0" end="1800" period="8.72" number="206"/>
  <flow id="f_006" route="r_EW_2" type="car" begin="0" end="1800" period="9.07" number="198"/>
  <flow id="f_007" route="r_EW_3" type="car" begin="0" end="1800" period="10.69" number="168"/>
  <flow id="f_008" route="r_SN_A" type="car" begin="0" end="1800" period="10.43" number="172"/>
  <flow id="f_009" route="r_SN_B" type="car" begin="0" end="1800" period="8.38" number="214"/>
  <flow id="f_010" route="r_SN_C" type="car" begin="0" end="1800" period="8.41" number="213"/>
  <flow id="f_011" route="r_SN_D" type="car" begin="0" end="1800" period="7.68" number="234"/>
  <flow id="f_012" route="r_NS_A" type="car" begin="0" end="1800" period="10.11" number="178"/>
  <flow id="f_013" route="r_NS_B" type="car" begin="0" end="1800" period="7.55" number="238"/>
  <flow id="f_014" route="r_NS_C" type="car" begin="0" end="1800" period="9.92" number="181"/>
  <flow id="f_015" route="r_NS_D" type="car" begin="0" end="1800" period="10.92" number="164"/>
  <vehicle id="v000" type="car" route="r_WE_1" depart="0"/>
  <vehicle id="v001" type="car" route="r_SN_B" depart="5"/>
</routes>
