<?xml version='1.0' encoding='utf-8'?>
<routes><!-- Vehicle types based on Quito driving behavior - Fixed --><vType id="imprudent_0_nominal" sigma="0.5" tau="1.0" speedFactor="1.0" accel="0.5581039755351682" decel="0.5" color="1,0.5,0" /><vType id="imprudent_1_nominal" sigma="0.5" tau="1.0" speedFactor="1.0" accel="1.04" decel="0.5" color="1,0.5,0" /><vType id="imprudent_2_nominal" sigma="0.5" tau="1.0" speedFactor="1.0" accel="0.25" decel="0.5" color="1,0.5,0" /><vType id="imprudent_3_nominal" sigma="0.5" tau="1.0" speedFactor="1.0" accel="0.5871559633027523" decel="0.5" color="1,0.5,0" /><vType id="imprudent_4_nominal" sigma="0.5" tau="1.0" speedFactor="1.0" accel="0.406466759323203" decel="0.5" color="1,0.5,0" /><vType id="imprudent_5_nominal" sigma="0.5" tau="1.0" speedFactor="1.0" accel="0.17" decel="0.5" color="1,0.5,0" /><vType id="imprudent_6_nominal" sigma="0.5" tau="1.0" speedFactor="1.0" accel="0.2499999999999997" decel="0.5" color="1,0.5,0" /><vType id="imprudent_7_nominal" sigma="0.5" tau="1.0" speedFactor="1.0" accel="0.9" decel="0.5" color="1,0.5,0" /><vType id="imprudent_8_nominal" sigma="0.5" tau="1.0" speedFactor="1.0" accel="0.62" decel="0.5" color="1,0.5,0" /><vType id="imprudent_9_nominal" sigma="0.5" tau="1.0" speedFactor="1.0" accel="0.5241905805587966" decel="0.5" color="1,0.5,0" /><vType id="imprudent_10_nominal" sigma="0.5" tau="1.0" speedFactor="1.0" accel="0.27" decel="0.5" color="1,0.5,0" /><vType id="imprudent_11_nominal" sigma="0.5" tau="1.0" speedFactor="1.0" accel="0.36" decel="0.5" color="1,0.5,0" /><vType id="imprudent_12_nominal" sigma="0.5" tau="1.0" speedFactor="1.0" accel="0.57" decel="0.5" color="1,0.5,0" /><vType id="imprudent_13_nominal" sigma="0.5" tau="1.0" speedFactor="1.0" accel="0.6972477064220184" decel="0.5" color="1,0.5,0" /><vType id="imprudent_14_nominal" sigma="0.5" tau="1.0" speedFactor="1.0" accel="0.5443425076452599" decel="0.5" color="1,0.5,0" /><vType id="imprudent_15_nominal" sigma="0.5" tau="1.0" speedFactor="1.0" accel="0.6116207951070337" decel="0.5" color="1,0.5,0" /><vType id="imprudent_16_nominal" sigma="0.5" tau="1.0" speedFactor="1.0" accel="0.22" decel="0.5" color="1,0.5,0" /><vType id="imprudent_17_nominal" sigma="0.5" tau="1.0" speedFactor="1.0" accel="0.6499999999999999" decel="0.5" color="1,0.5,0" /><vType id="imprudent_18_nominal" sigma="0.5" tau="1.0" speedFactor="1.0" accel="0.54" decel="0.5" color="1,0.5,0" /><vType id="imprudent_19_nominal" sigma="0.5" tau="1.0" speedFactor="1.0" accel="0.66" decel="0.5" color="1,0.5,0" /><vType id="imprudent_20_nominal" sigma="0.5" tau="1.0" speedFactor="1.0" accel="0.5397553516819572" decel="0.5" color="1,0.5,0" /><vType id="imprudent_21_nominal" sigma="0.5" tau="1.0" speedFactor="1.0" accel="0.5397553516819572" decel="0.5" color="1,0.5,0" /><vType id="imprudent_22_nominal" sigma="0.5" tau="1.0" speedFactor="1.0" accel="0.52" decel="0.5" color="1,0.5,0" /><vType id="imprudent_23_nominal" sigma="0.5" tau="1.0" speedFactor="1.0" accel="0.6024464831804281" decel="0.5" color="1,0.5,0" /><vType id="imprudent_24_nominal" sigma="0.5" tau="1.0" speedFactor="1.0" accel="0.179309441899434" decel="0.5" color="1,0.5,0" /><vType id="imprudent_25_nominal" sigma="0.5" tau="1.0" speedFactor="1.0" accel="0.26" decel="0.5" color="1,0.5,0" /><vType id="imprudent_26_nominal" sigma="0.5" tau="1.0" speedFactor="1.0" accel="0.133098651661146" decel="0.5" color="1,0.5,0" /><vType id="imprudent_27_nominal" sigma="0.5" tau="1.0" speedFactor="1.0" accel="0.15" decel="0.5" color="1,0.5,0" /><vType id="imprudent_28_nominal" sigma="0.5" tau="1.0" speedFactor="1.0" accel="0.5886850152905199" decel="0.5" color="1,0.5,0" /><vType id="imprudent_29_nominal" sigma="0.5" tau="1.0" speedFactor="1.0" accel="0.5382262996941897" decel="0.5" color="1,0.5,0" /><vType id="imprudent_30_nominal" sigma="0.5" tau="1.0" speedFactor="1.0" accel="0.6358666171709756" decel="0.5" color="1,0.5,0" /><vType id="imprudent_31_nominal" sigma="0.5" tau="1.0" speedFactor="1.0" accel="0.6529051987767585" decel="0.5" color="1,0.5,0" /><vType id="imprudent_32_nominal" sigma="0.5" tau="1.0" speedFactor="1.0" accel="0.714622642" decel="0.5" color="1,0.5,0" /><vType id="imprudent_33_nominal" sigma="0.5" tau="1.0" speedFactor="1.0" accel="0.99" decel="0.5" color="1,0.5,0" /><vType id="imprudent_34_nominal" sigma="0.5" tau="1.0" speedFactor="1.0" accel="0.535290397851109" decel="0.5" color="1,0.5,0" /><vType id="imprudent_35_nominal" sigma="0.5" tau="1.0" speedFactor="1.0" accel="0.6529051987767585" decel="0.5" color="1,0.5,0" /><vType id="imprudent_36_nominal" sigma="0.5" tau="1.0" speedFactor="1.0" accel="0.6146788990825689" decel="0.5" color="1,0.5,0" /><vType id="imprudent_37_nominal" sigma="0.5" tau="1.0" speedFactor="1.0" accel="0.717125382262997" decel="0.5" color="1,0.5,0" /><vType id="imprudent_38_nominal" sigma="0.5" tau="1.0" speedFactor="1.0" accel="0.6162079510703364" decel="0.5" color="1,0.5,0" /><vType id="imprudent_39_nominal" sigma="0.5" tau="1.0" speedFactor="1.0" accel="0.6896024464831805" decel="0.5" color="1,0.5,0" /><vType id="imprudent_40_nominal" sigma="0.5" tau="1.0" speedFactor="1.0" accel="0.27" decel="0.5" color="1,0.5,0" /><vType id="imprudent_41_nominal" sigma="0.5" tau="1.0" speedFactor="1.0" accel="0.5412844036697249" decel="0.5" color="1,0.5,0" /><vType id="imprudent_42_nominal" sigma="0.5" tau="1.0" speedFactor="1.0" accel="0.28" decel="0.5" color="1,0.5,0" /><vType id="imprudent_43_nominal" sigma="0.5" tau="1.0" speedFactor="1.0" accel="0.84" decel="0.5" color="1,0.5,0" /><vType id="imprudent_44_nominal" sigma="0.5" tau="1.0" speedFactor="1.0" accel="0.532678377568837" decel="0.5" color="1,0.5,0" /><vType id="imprudent_45_nominal" sigma="0.5" tau="1.0" speedFactor="1.0" accel="0.236893167710138" decel="0.5" color="1,0.5,0" /><vType id="imprudent_46_nominal" sigma="0.5" tau="1.0" speedFactor="1.0" accel="0.52" decel="0.5" color="1,0.5,0" /><vType id="imprudent_47_nominal" sigma="0.5" tau="1.0" speedFactor="1.0" accel="0.27" decel="0.5" color="1,0.5,0" /><vType id="imprudent_48_nominal" sigma="0.5" tau="1.0" speedFactor="1.0" accel="0.6529051987767585" decel="0.5" color="1,0.5,0" /><vType id="imprudent_49_nominal" sigma="0.5" tau="1.0" speedFactor="1.0" accel="1.54" decel="0.5" color="1,0.5,0" /><route id="route_0" edges="edge_0 edge_1 edge_2 edge_3" /><vehicle id="veh_test_0" type="imprudent_49_nominal" route="route_0" depart="0" /><route id="route_1" edges="edge_0 edge_1 edge_2 edge_3" /><vehicle id="veh_test_1" type="imprudent_20_nominal" route="route_1" depart="30" /><route id="route_2" edges="edge_0 edge_1 edge_2 edge_3" /><vehicle id="veh_test_2" type="imprudent_8_nominal" route="route_2" depart="60" /><route id="route_3" edges="edge_0 edge_1 edge_2 edge_3" /><vehicle id="veh_test_3" type="imprudent_6_nominal" route="route_3" depart="90" /><route id="route_4" edges="edge_0 edge_1 edge_2 edge_3" /><vehicle id="veh_test_4" type="imprudent_14_nominal" route="route_4" depart="120" /><route id="route_5" edges="edge_0 edge_1 edge_2 edge_3" /><vehicle id="veh_test_5" type="imprudent_13_nominal" route="route_5" depart="150" /><route id="route_6" edges="edge_0 edge_1 edge_2 edge_3" /><vehicle id="veh_test_6" type="imprudent_28_nominal" route="route_6" depart="180" /><route id="route_7" edges="edge_0 edge_1 edge_2 edge_3" /><vehicle id="veh_test_7" type="imprudent_24_nominal" route="route_7" depart="210" /><route id="route_8" edges="edge_0 edge_1 edge_2 edge_3" /><vehicle id="veh_test_8" type="imprudent_34_nominal" route="route_8" depart="240" /><route id="route_9" edges="edge_0 edge_1 edge_2 edge_3" /><vehicle id="veh_test_9" type="imprudent_22_nominal" route="route_9" depart="270" /><route id="route_10" edges="edge_0 edge_1 edge_2 edge_3" /><vehicle id="veh_test_10" type="imprudent_43_nominal" route="route_10" depart="300" /><route id="route_11" edges="edge_0 edge_1 edge_2 edge_3" /><vehicle id="veh_test_11" type="imprudent_45_nominal" route="route_11" depart="330" /><route id="route_12" edges="edge_0 edge_1 edge_2 edge_3" /><vehicle id="veh_test_12" type="imprudent_15_nominal" route="route_12" depart="360" /><route id="route_13" edges="edge_0 edge_1 edge_2 edge_3" /><vehicle id="veh_test_13" type="imprudent_31_nominal" route="route_13" depart="390" /><route id="route_14" edges="edge_0 edge_1 edge_2 edge_3" /><vehicle id="veh_test_14" type="imprudent_27_nominal" route="route_14" depart="420" /><route id="route_15" edges="edge_0 edge_1 edge_2 edge_3" /><vehicle id="veh_test_15" type="imprudent_5_nominal" route="route_15" depart="450" /><route id="route_16" edges="edge_0 edge_1 edge_2 edge_3" /><vehicle id="veh_test_16" type="imprudent_21_nominal" route="route_16" depart="480" /><route id="route_17" edges="edge_0 edge_1 edge_2 edge_3" /><vehicle id="veh_test_17" type="imprudent_3_nominal" route="route_17" depart="510" /><route id="route_18" edges="edge_0 edge_1 edge_2 edge_3" /><vehicle id="veh_test_18" type="imprudent_0_nominal" route="route_18" depart="540" /><route id="route_19" edges="edge_0 edge_1 edge_2 edge_3" /><vehicle id="veh_test_19" type="imprudent_44_nominal" route="route_19" depart="570" /></routes>